  87

 H         -0.5425054112       -1.1597996585        0.9180873604
 C         -0.6112510051       -0.5412956740        0.0100749183
 H         -0.5391308395       -1.1969144470       -0.8712436600
 C          0.5103658647        0.5037878336       -0.0094871838
 H          0.3911098457        1.1518924073        0.8600966290
 H          0.3944399221        1.1152669956       -0.9056411629
 O         -1.7891825170        0.2100258093       -0.0077307040
 H         -2.5646581753       -0.3620747641        0.0026734602
 N          1.8637421187       -0.1172780949        0.0059475208
 H          1.9871272140       -0.7237037740       -0.8163106223
 H          1.9839787968       -0.6890763206        0.8531041602
 H          2.5930828886        0.6072400317       -0.0077051379
 O          3.4153950030        1.9866477590       -0.5303833482
 H          3.0274180554        1.9902121030       -1.4337683176
 H          4.3669495529        1.7984986326       -0.6314671752
 O          2.3791411116       -2.1174553968        1.8169051123
 H          3.2573197860       -1.8895603875        2.1358572337
 H          1.7477380403       -1.9159358815        2.5367393402
 O          0.6776601603       -0.9407868932        3.4819787600
 H          0.6892601071       -1.0214944307        4.4349257831
 H          1.1903728116       -0.1186701486        3.2778578975
 O          2.3593076922       -1.7047605537       -2.1035973692
 H          1.9983936749       -2.5229889612       -1.6831447078
 H          1.7777359556       -1.4570349074       -2.8312047243
 O         -3.3335539800       -1.4848521874       -1.8387807121
 H         -4.2055566331       -1.1200513806       -2.0372796724
 H         -3.4131957488       -1.9292119172       -0.9854497234
 O          0.2061258880       -0.2894713516       -3.2939079841
 H         -0.5442923357        0.3046371326       -3.4264996055
 H         -0.2045517474       -1.1759445443       -3.2343585027
 O          1.4815666170       -3.5187618444       -0.4331335990
 H          1.8538599546       -3.2245339623        0.4100464193
 H          0.5261101824       -3.5989165048       -0.2952676753
 O          2.3400836193        0.9861450541        2.8541812546
 H          3.1524736488        0.6596998524        2.4423834801
 H          2.0925591193        1.8060101182        2.3868184083
 O         -1.9851858247        1.3952453720       -2.5161271281
 H         -1.3665407214        2.1309072260       -2.3522857306
 H         -1.8894129996        0.7957471412       -1.7542463198
 O         -1.2785055220       -3.6552345483       -0.1277665459
 H         -1.5210381634       -4.5552559053        0.0863338938
 H         -1.9670847166       -3.0904713109        0.2690443273
 O          4.8249809608       -1.4789351200       -1.0535202485
 H          3.9976591007       -1.5486004199       -1.5691744325
 H          5.2471938792       -2.3378506012       -1.1046793009
 O         -4.4071551405        1.3850340171        1.1852619982
 H         -4.8734091054        0.5357757900        1.1786784122
 H         -4.3529059136        1.6870378928        0.2654772893
 O         -4.3363530682        2.0808047423       -1.5216674318
 H         -4.5089936953        3.0081224651       -1.6847166046
 H         -3.4859568755        1.8575800267       -1.9815575963
 O         -1.6257126899        2.9760517662        0.4417110346
 H         -1.8591925575        2.0367041038        0.3731241227
 H         -1.4341244103        3.1113663279        1.3736221591
 O         -0.1582705622        3.2573738027       -1.7162815827
 H         -0.1646023446        4.1739981424       -1.9866466848
 H         -0.5820574504        3.2336104090       -0.8225170251
 O         -2.0627314194       -1.0394345055        3.0337698501
 H         -2.1771947916       -0.0684818992        2.9746978435
 H         -1.1143220607       -1.1653540254        3.1799253648
 O          2.0068490162        1.8050516200       -2.7747450129
 H          1.5640372993        1.0028275603       -3.0887017462
 H          1.2967163656        2.4264684852       -2.5597535872
 O         -2.3436973903        1.6463901869        2.8324925381
 H         -3.1097415195        1.5977288331        2.2146622779
 H         -2.6937240603        1.9812572844        3.6576398933
 O          4.4614720331       -0.2019458701        1.3984909474
 H          5.1921259327        0.4209102815        1.3959684004
 H          4.5788033506       -0.7268155965        0.5874858346
 O         -3.2275647884       -2.0358599770        0.9008286091
 H         -2.8062151337       -1.7206366533        1.7413205871
 H         -4.1769949878       -1.9019763048        1.0355595749
 O          5.9225724468        1.0500410938       -0.8606707358
 H          6.5105845670        1.3742038090       -1.5431460027
 H          5.6879171723        0.1354733475       -1.0917655065
 O         -5.7746614787       -0.1632002751       -1.7578414352
 H         -6.4857257794       -0.0612279784       -2.3882406571
 H         -5.3172340358        0.7033004894       -1.6984446767
 O         -1.0447695348       -2.6112939938       -2.7883743837
 H         -0.9429865647       -3.2057994127       -2.0349477745
 H         -1.9404025519       -2.2457987143       -2.6974467643
 O          1.7298881142        3.1036432860        1.2702698972
 H          1.9401624566        3.9954935569        1.5457321552
 H          2.3607383633        2.8689667635        0.5641514044
 O         -5.7794173854       -1.0290864366        0.8060493668
 H         -6.6493078960       -1.1982047167        1.1685759960
 H         -5.8926982219       -0.8112060671       -0.1403188996
