  387

 H         -0.5425054111       -1.1597996583        0.9180873608
 C         -0.6112510052       -0.5412956738        0.0100749191
 H         -0.5391308395       -1.1969144469       -0.8712436593
 C          0.5103658646        0.5037878335       -0.0094871832
 H          0.3911098461        1.1518924073        0.8600966301
 H          0.3944399223        1.1152669956       -0.9056411622
 O         -1.7891825171        0.2100258093       -0.0077307032
 H         -2.5646581753       -0.3620747640        0.0026734609
 N          1.8637421188       -0.1172780951        0.0059475183
 H          1.9871272141       -0.7237037733       -0.8163106230
 H          1.9839787964       -0.6890763206        0.8531041611
 H          2.5930828887        0.6072400316       -0.0077051370
 O          4.3026646927       -1.5742422127        2.9112275345
 H          4.4331284118       -2.4537255415        2.5179582237
 H          3.3683155980       -1.3307303262        2.7406644992
 O          2.1139366720       -1.0548761484       -2.4366257996
 H          1.6346333557       -1.8945716857       -2.4791391142
 H          1.6731206468       -0.4486289594       -3.0535416466
 O          0.6096290176        0.1500021255       -4.3543018345
 H          0.4155265152        1.0291306477       -4.7155606853
 H          1.0181789131       -0.3926870202       -5.0604461586
 O         -2.9846884649       -2.9911961132        1.0948224666
 H         -2.1608569636       -3.2349680118        0.6261198977
 H         -3.7261878177       -2.9218498030        0.4515834564
 O          1.7471959958       -1.2652063323        2.4089744288
 H          1.1509081173       -0.5785332932        2.7918323161
 H          1.3002442936       -2.1178034099        2.5268169096
 O          4.0229216307        0.8289097770        1.2379232988
 H          3.5851070909        0.8626446335        2.1105331750
 H          4.3736468481        1.7168290927        1.0987782717
 O         -1.6137752613        1.5342334713       -2.3554501852
 H         -1.6518106068        0.9946725324       -1.5390009567
 H         -0.6850310592        1.6088191570       -2.6366635265
 O          3.2394543379        1.9467753019       -1.0949742558
 H          2.4818548995        1.8772943165       -1.7086146714
 H          3.9709397920        2.3218837783       -1.6191530880
 O          2.4605082544        3.9487887825        0.3950952083
 H          2.7089734493        4.6873308058       -0.1935757640
 H          2.8264365866        3.1374688478       -0.0369305931
 O          2.8727995577       -5.5404032517        0.5639680844
 H          2.4605372991       -6.0108131243        1.3214290300
 H          2.3090751594       -5.7213692943       -0.2228243153
 O         -1.1471484578        2.8739557521        1.4490804636
 H         -1.9331922189        2.2978140750        1.3990524503
 H         -1.4649377228        3.7112207632        1.8459978765
 O         -0.0938130879        0.3981110239        3.2567496095
 H         -0.0697583072        0.6269054559        4.1897269224
 H         -0.8768916263       -0.1635575207        3.1210958028
 O         -3.0230381969        3.4550998071       -1.1977073699
 H         -2.3349612173        2.9023916646       -1.6243540354
 H         -2.6127381647        4.2508801704       -0.7796360328
 O          0.0214878478        3.8228402559       -0.7404913124
 H         -0.5104302074        3.3976835171       -0.0351849736
 H          0.8688765886        4.0062261229       -0.2889139401
 O          4.6546077625       -4.1197038293        2.2003555310
 H          5.6176493132       -4.1683204803        2.3065074234
 H          4.3799543021       -4.6706556505        1.4594189031
 O         -2.2054574982       -1.2816959911        2.9573634878
 H         -2.5039745434       -1.8084179347        2.1911430162
 H         -2.0930131799       -1.9252203568        3.6721538961
 O          1.3431514016       -3.9230404227       -4.5266368932
 H          1.8070436154       -3.7083304326       -3.6927691172
 H          0.4869819783       -4.2972287983       -4.2668140126
 O         -0.5216968192       -3.7182698828        0.4682827038
 H         -0.0438612104       -3.6012213286        1.3001647634
 H         -0.5896946100       -4.6841999971        0.3089486956
 O          0.3949567833       -3.5070791305        3.1289215574
 H          1.2405606682       -3.8728685203        3.4822291102
 H          0.0428417907       -2.9557485665        3.8673203926
 O         -3.6444212144        2.1379026093        1.0770412839
 H         -3.9400773811        1.2291998161        0.9085717582
 H         -3.5104887377        2.5624672819        0.2102751213
 O         -1.1323682550       -1.5473847003       -3.3669381821
 H         -0.5544978166       -0.8593685484       -3.7632598731
 H         -1.5518729130       -2.0319918860       -4.1077794236
 O         -3.1108752227       -1.4361416751       -1.6665373489
 H         -2.4531787407       -1.2325680851       -2.3600604422
 H         -3.0316894135       -2.3952393792       -1.5649096955
 O          3.7834867361        0.5633021485       -4.2986963712
 H          4.0872900040        0.4836829780       -3.3721844466
 H          3.7500332469       -0.3475728370       -4.6212703232
 O          4.5828277270       -1.4916152792       -0.0197811562
 H          3.7466271490       -2.0044863252        0.0819080801
 H          4.4972835829       -0.7020889706        0.5488011898
 O          1.0344946595        2.2026032520       -2.5619955803
 H          1.5407296081        2.5743758823       -3.3097782772
 H          0.7100855791        2.9431220936       -2.0100249036
 O         -3.2422196543        0.4527787704       -4.1568576214
 H         -3.8994140833        1.1744604775       -4.2411419080
 H         -2.6060266001        0.7703940085       -3.4843649922
 O          5.3704364812        3.2958561657        1.0917375630
 H          5.7730470849        3.2687033354        1.9708245093
 H          5.8993655689        2.6801301694        0.5315412521
 O         -3.5955444303       -4.9991177994        2.6346163967
 H         -4.5020907094       -4.8280381864        2.9443378762
 H         -3.3768366988       -4.2151621090        2.0597909730
 O          6.2651567086       -3.4951298699       -0.2949736184
 H          7.1246453753       -3.1881995633        0.0042077552
 H          5.6436752816       -2.7455271362       -0.1278542058
 O          2.3901057045       -2.9147379927        0.1073931883
 H          2.4258652859       -3.0748098316       -0.8556905723
 H          2.5431340735       -3.7912612267        0.4946172727
 O         -2.6076516535       -4.1263727487       -1.6844881964
 H         -1.9650997011       -4.4647782265       -2.3306055540
 H         -2.8582205804       -4.8568007466       -1.0890759546
 O         -5.1107265759       -1.4213916853        3.0769973110
 H         -4.7123955339       -1.1184132732        2.2343091379
 H         -4.4376175164       -1.4034052870        3.7778295912
 O          2.7214921003       -4.3308479112        4.1025151859
 H          3.4242318784       -4.3131399040        3.4261871532
 H          3.0361159514       -3.7185158344        4.7919469609
 O         -3.5223207629       -6.0567761618       -0.0146850544
 H         -3.6848179036       -5.8620171128        0.9210474792
 H         -4.4058394333       -6.1259066092       -0.4418338341
 O          6.4186750841       -0.2649165548        1.9768015927
 H          5.5717026421       -0.6048560242        2.3393924335
 H          6.9216147696        0.0473987509        2.7537724800
 O          5.4486425442        5.2882280988       -0.6785743744
 H          5.2901281179        4.6326164297        0.0348565204
 H          6.4052680755        5.2488109829       -0.8127749038
 O          3.0844910772       -3.5283914098       -2.4350063353
 H          3.8147992556       -2.9904034173       -2.7606515197
 H          3.3941752104       -4.4548072795       -2.4932246500
 O         -2.0538317406        5.5921551105       -0.0241450841
 H         -2.1777836012        5.5965084905        0.9325436360
 H         -1.1068597244        5.7506959611       -0.1657132414
 O         -1.9035832327        5.1234643251        2.7363084813
 H         -1.0500859748        5.5467660762        2.8971153875
 H         -2.1099061929        4.6288519479        3.5742498067
 O         -4.6744601094        4.3189052524        2.1866556437
 H         -3.8993642821        4.8729320073        2.3183441815
 H         -4.3369342826        3.4410777658        1.9049063546
 O         -0.8095988504        4.5222872167       -3.3667720065
 H         -1.7512993475        4.7231821532       -3.5430691814
 H         -0.7184334187        4.4087381219       -2.4086042215
 O          2.8501368376        3.0739375038       -4.3422616318
 H          3.0696653052        2.1615933048       -4.6023465059
 H          3.6069239099        3.3221811132       -3.7762088553
 O          4.8763006952        3.4303984902       -2.5711436003
 H          5.7524788280        3.0954734708       -2.8433039106
 H          5.0425649300        4.1884255419       -1.9790942657
 O          5.2103865346        0.0925292676       -2.0676476722
 H          5.8904136632       -0.3649855992       -2.6011991833
 H          4.8278208280       -0.5728199420       -1.4624320664
 O          6.5765159507        1.3329068003       -0.1746562273
 H          5.9886072596        0.9740943055       -0.8808067774
 H          6.4757081449        0.7374654276        0.5973598680
 O          2.6965281718        1.2567289796        3.4304465547
 H          2.4664580384        0.5807987787        4.0954228774
 H          1.9317505158        1.8527422436        3.3212128741
 O         -3.1400893695        1.2035021997        3.6765687267
 H         -2.9368330620        0.4656109023        3.0848985417
 H         -4.1093504711        1.2282182086        3.7900114542
 O         -4.5398631727       -0.3553515557        0.7152750197
 H         -5.4780570850       -0.0664503546        0.8447944700
 H         -4.6308740934       -1.1145989496        0.1125689139
 O         -7.0384738921        0.1534480009        1.1506731881
 H         -7.2817887504        0.8430319983        1.8046836092
 H         -7.4329624018        0.4758536015        0.3189254033
 O          5.8098404721       -3.5487420571       -2.9568766923
 H          5.9133122454       -4.4224049463       -3.3343183453
 H          6.0275674362       -3.6081302460       -2.0042930880
 O          0.7557996675        3.0677307697        3.2751516236
 H          0.8539819824        4.0226370061        3.1090769223
 H          0.0880832604        2.7572710650        2.6309044191
 O         -0.1941490560       -1.9529183555        5.1872468678
 H          0.6504900578       -1.4843179261        5.3212423774
 H         -0.8713891148       -1.3023055271        5.4437621465
 O          0.4099643165       -3.2492843790       -2.0140487412
 H          0.0851995302       -3.2804790297       -1.0985731332
 H         -0.2490118368       -2.7445269357       -2.5334686074
 O          8.7981487131        1.0415131837       -1.5623543019
 H          8.7035925072        0.0970834521       -1.7768103184
 H          8.0801766025        1.2252845283       -0.9108253992
 O          1.6716660638       -1.6852483531       -5.9549524379
 H          2.6392492273       -1.6634243027       -5.9707781127
 H          1.4571643756       -2.5142988596       -5.4747349268
 O          2.8112083981        5.9818696251       -1.3037117126
 H          3.7686781765        6.0866990511       -1.3334215754
 H          2.4828703093        5.8532803448       -2.2273766434
 O          4.2406873279        3.1394794021        4.4407470484
 H          3.8127348760        2.3342021388        4.0614306403
 H          3.9241592220        3.8762208596        3.8897160930
 O         -5.4003471428        2.2608410271       -1.5303240743
 H         -4.5009529298        2.6178069204       -1.4737526214
 H         -5.9312827710        2.8950418735       -1.0135704080
 O         -5.4610833872       -0.3213219721       -2.1904959004
 H         -5.4307472556        0.5782657745       -1.8175256686
 H         -4.5755925746       -0.7234456753       -2.0535057954
 O         -0.1238472548        2.3825812694        5.6903674595
 H         -0.8822371560        2.9724779147        5.7936720125
 H          0.2364136993        2.6289351523        4.8078057675
 O         -5.1523240337       -2.7121026546       -0.3522175913
 H         -5.1898521902       -2.9949636515       -1.2894920112
 H         -5.8647947769       -3.1815216178        0.1289733078
 O         -7.6436255656       -1.5052537462       -1.3562874866
 H         -7.6277779840       -2.4745831147       -1.4127833775
 H         -6.7524378073       -1.1494269098       -1.5724044808
 O          7.9492933821        4.1268123927       -0.9707101613
 H          8.8244306914        4.4671854010       -1.1565307160
 H          7.6898016069        3.6180983523       -1.7592439792
 O         -2.3032825473       -2.9883569540       -5.2778222384
 H         -1.8144827856       -2.5433556030       -6.0249441182
 H         -3.2148917160       -2.6607661357       -5.2979568942
 O          7.3579176830        2.6186333380       -3.2328801004
 H          7.9439189980        1.9836029622       -2.7807609187
 H          7.0507185506        2.1382395168       -4.0373871008
 O          1.2956839186       -5.8445509490       -1.5788500894
 H          0.5188601511       -6.2262665133       -1.1485705365
 H          1.0278970322       -4.9520842752       -1.8713269044
 O          6.7064334387        2.9582418921        3.5651446686
 H          5.7993149882        2.8261502537        3.9707783822
 H          7.1108816499        3.6544413518        4.0833257895
 O         -6.1619954449        4.4562422292       -0.1302913027
 H         -5.5749195121        4.5504246515        0.6401891957
 H         -7.0551933252        4.4438419608        0.2462884818
 O         -3.5199300643        4.6691501548       -3.5977922931
 H         -3.9061699578        3.9572220052       -4.1264932115
 H         -3.5448634130        4.3528626320       -2.6771638402
 O         -2.4113092028       -3.5493828889        4.6027993869
 H         -2.8248710469       -4.2102010663        4.0128432743
 H         -1.7166047315       -3.9691251163        5.1100350569
 O         -5.8162602011        1.0389489020        4.0890949679
 H         -5.8162660752        0.1150662697        3.7799678785
 H         -6.6190711658        1.4451663999        3.7247577165
 O          0.8426442651        5.7271413932        2.6804486121
 H          1.7962017875        5.7403957149        2.8533401160
 H          0.7483134266        5.9715508303        1.7416878954
 O          1.7383653149        5.5351666417       -3.6709378821
 H          2.1515898233        4.7739099524       -4.0986634851
 H          0.7873449312        5.3415234197       -3.6240916832
 O         -5.0214212437       -3.6573835168       -2.8256625328
 H         -4.0881264260       -3.8860909139       -2.6560147826
 H         -5.0033306874       -2.9777474054       -3.5263496615
 O         -6.8447027082        0.3009538301       -4.4206866938
 H         -7.6368432262       -0.2580195836       -4.3831022405
 H         -6.3066684572        0.0335949029       -3.6443898082
 O          0.0168568789        2.7003965730       -5.2288110983
 H         -0.3481924184        3.3252720181       -4.5702169197
 H          0.8053305466        3.1077605742       -5.5919015260
 O          3.8798931299       -6.0529798035       -2.7561513488
 H          4.4882831071       -6.2046657570       -1.9964921851
 H          3.0188833238       -6.4047619873       -2.4996276163
 O          8.5800909115        2.6073053503        1.3684011189
 H          7.8982733686        2.7386468438        2.0371004761
 H          8.2887699144        3.0687176584        0.5666901997
 O          7.0360252602       -1.2634071474       -3.5178449344
 H          7.8221737001       -1.4506998710       -2.9876598913
 H          6.5335270457       -2.1020806323       -3.5221718450
 O         -5.0293172902        2.4208460644       -4.2373469552
 H         -5.7275296896        2.0269300419       -4.7676674188
 H         -5.3568760941        2.4430144742       -3.3131921832
 O         -8.2448594455        1.6262355645       -0.6830309166
 H         -9.2065778502        1.5479030288       -0.5584965747
 H         -8.1162656739        1.8896146265       -1.6227518845
 O         -8.1712088724       -1.7246844028        2.8351446264
 H         -7.6779833007       -1.7532378530        3.6699200407
 H         -7.6361678371       -1.1982847110        2.2120705286
 O         -4.6790135978       -1.7285371725       -4.7132299210
 H         -5.4438653366       -1.3265942975       -5.1329988361
 H         -4.1250868042       -0.9723950562       -4.4155160828
 O          8.2052715980       -1.8326262319        1.0155478716
 H          7.4028710938       -1.2879835261        1.2618216866
 H          8.9259507893       -1.2427728132        1.3360661958
 O          6.3761570885        0.9809250552       -5.0760592664
 H          6.7229545514        0.1574108887       -4.7059421208
 H          5.4126451168        0.9513063252       -4.9165976432
 O          0.5605916145        6.5440946291        0.0740490894
 H          1.3735098467        6.3791750833       -0.4398997595
 H          0.3172148918        7.4554598629       -0.0805905811
 O         -0.8243046334       -6.3614956137        0.1382017254
 H         -0.7459093478       -6.4799723178        1.1021013444
 H         -1.7646079903       -6.4924082979       -0.0609185675
 O         -0.9434951532       -5.8547275609        2.8051208169
 H         -0.5733988569       -4.9578631691        2.9428509608
 H         -1.9053743470       -5.7654473409        2.8253113308
 O         -8.1477029857        2.3902773041       -3.1990511100
 H         -7.6726421792        1.7272267062       -3.7365557660
 H         -7.6323933835        3.2147728311       -3.2186257343
 O         -0.9282120913       -1.6192477899       -6.9805880846
 H          0.0224423465       -1.6247830127       -6.8093876133
 H         -1.2258046853       -0.6901473039       -6.8759190259
 O          2.0390620128       -0.4408797715        5.4279989114
 H          2.7581296941       -1.0799142686        5.5763706093
 H          2.2118260504        0.3292739084        6.0083183503
 O          3.5002399813        5.0312499869        2.5809045262
 H          4.2374724079        5.5264765432        2.2240940421
 H          3.1506810715        4.4899113763        1.8298636822
 O         -1.1802816995       -4.9202353673       -3.8697748097
 H         -1.6244106518       -4.2529860863       -4.4420358307
 H         -1.3403970681       -5.7746438491       -4.2675229694
 O          8.9698733520       -1.6711778802       -1.5649392810
 H          8.6629093803       -1.7666200911       -0.6370135689
 H          9.9287011810       -1.6342197506       -1.5186489303
 O          9.7686898540        0.1971587029        1.7397059720
 H         10.4792772110        0.1192391772        1.0821807443
 H          9.3310506600        1.0468978020        1.5265007628
 O         -1.7670907173        0.8528331511       -6.3990432344
 H         -2.3392535677        0.6849567002       -5.6262234965
 H         -1.1835120468        1.5790893947       -6.1487421521
 O         -8.0719396136        1.9270814203        2.8470504621
 H         -8.9066343693        1.4211204157        2.7590389526
 H         -8.1958320243        2.7402298103        2.3218505147
 O         -8.5565539037        3.7331613563        0.9043923634
 H         -9.4912939369        3.9217627577        0.8024919001
 H         -8.3843894753        2.9712894953        0.2981238469
 O         -5.9203042137       -5.7381656515       -1.1520476453
 H         -6.3130835511       -5.2569063483       -0.4007228642
 H         -5.7178186913       -5.0847303110       -1.8386974214
 O         -6.9326278701       -4.2141517165        0.8761976564
 H         -7.8548238676       -3.8880699387        0.8582719521
 H         -6.6600295149       -4.2048665252        1.8136036564
 O         -5.9543609850       -3.8974892772        3.3623707393
 H         -5.6715053724       -2.9567362792        3.2219959617
 H         -6.5315765628       -3.8703976923        4.1268648026
 O         -8.9374279890       -1.2878188049       -3.6454788233
 H         -9.2010152726       -2.1829509498       -3.8578966554
 H         -8.4833035963       -1.3453406434       -2.7651866408
 O         -9.9678836745       -0.7796566649       -0.2911498336
 H        -10.3485258816       -0.2986456845       -1.0450422311
 H         -9.0393780238       -0.9391266387       -0.5513504490
 O         -4.0036791770       -1.5765668184        5.5575198913
 H         -3.4771470085       -2.3792275659        5.4128414885
 H         -3.3927372414       -0.9209752023        5.9178757532
 O         -9.4328078343       -3.2204286365        0.9319189605
 H         -9.8327535898       -2.4980622483        0.4235902640
 H         -9.1576963982       -2.7974030598        1.7640501350
 O          3.9965137793       -2.3119584434        5.4196463924
 H          4.1908647539       -1.9720907585        4.5069162280
 H          4.8588167966       -2.3707468043        5.8374932486
 O        -10.0584626496        0.1985776998        2.2386944452
 H         -9.6335709762       -0.5173279517        2.7362012474
 H        -10.0368313765       -0.1262065456        1.3153853942
 O         -2.4486505384        3.5753773886        4.7745412880
 H         -3.3787705952        3.7743662122        5.0223350807
 H         -2.5274088043        2.7347409124        4.2883647053
 O         -6.7976163899       -1.6534181388        5.2675059777
 H         -5.8422876589       -1.6754188922        5.4418621646
 H         -7.1056790287       -0.8226206474        5.6329867048
 O         -5.0898843722        3.7272844823        4.8508094855
 H         -5.1764071119        4.0289129408        3.9287839027
 H         -5.4220086003        2.8232967418        4.8638450783
 O        -10.4525830783        0.7396445225       -2.5391792079
 H        -10.1063186779        0.0276495664       -3.1023876065
 H         -9.9405480388        1.5173330782       -2.7964579062
 O         -6.4847370157        4.5955247329       -2.9003322563
 H         -6.3830260484        4.7598411284       -1.9512298910
 H         -5.6992740377        4.9554893440       -3.3237922800
 O          5.2927487561       -6.0862971533       -0.5128848208
 H          5.7160286370       -5.2210139320       -0.4018547646
 H          4.4517334462       -6.0484387325       -0.0213388252
 O          4.3518331654       -1.9565271329       -5.2660248788
 H          4.2693937862       -2.9329049345       -5.1648596896
 H          5.1478251095       -1.8029337634       -5.7747113752
 O        -10.8234742343        2.1030972149        0.1036297603
 H        -11.3868216000        1.7450080632       -0.5865656033
 H        -10.9906604892        1.6053320151        0.9112073813
 O         -8.3657034682       -4.0852428788       -1.7106457963
 H         -7.8889519159       -4.9205244988       -1.7297443934
 H         -8.9745063437       -4.1210918808       -0.9644436868
 O          1.7583162095       -6.5622844801        2.7397114515
 H          2.1131601398       -6.0022500937        3.4429158652
 H          0.7984864512       -6.5412292473        2.8330959558
 O         -1.8292536980        0.1689531418        5.7751460628
 H         -2.3205607861        0.5790450241        5.0290608853
 H         -1.2200406383        0.8558384137        6.0828502483
 O          3.9041425390       -4.5794164406       -5.1490005667
 H          4.0435905561       -5.1858512478       -4.4092644104
 H          2.9394463051       -4.4893941184       -5.2105574847
 O          2.5417304405        1.9553803163        6.4969522745
 H          3.1022874625        2.5019774212        5.9265250239
 H          1.6335565177        2.2761939653        6.3912929915
 O          7.3050080476       -3.6451641522        2.7838908527
 H          7.7204665405       -3.0230631512        2.1457566802
 H          7.9700480889       -4.2875380385        3.0269919484
 O          6.7252788604       -1.8078577929        4.8864206718
 H          6.8305949924       -2.4582919563        4.1759070160
 H          7.4060935518       -1.1368329724        4.7454522225
 O          8.0591682737        0.5002806242        3.9781049449
 H          8.8686068542        0.5453482725        3.4553247959
 H          7.6490968389        1.3809396957        3.9913790634
 O         11.1444999625        0.1475235301       -0.6017291997
 H         11.9250033047        0.6579519360       -0.8105836518
 H         10.3776529068        0.6373965524       -0.9721233952
 O          5.1794036223        0.5651001037        4.7307872991
 H          5.6168844020       -0.2924965353        4.8121479783
 H          4.8845141990        0.8176813957        5.6045264177
