 xtb: 6.5.1 (579679a)
          11232216263D

 11 10  0     0  0            999 V2000
    0.4631    1.1941    0.8323 h   0  0  0  0  0  0  0  0  0  0  0  0
    0.5529    0.5095   -0.0251 c   0  0  0  0  0  0  0  0  0  0  0  0
    0.4633    1.0990   -0.9466 h   0  0  0  0  0  0  0  0  0  0  0  0
   -0.5779   -0.5149    0.0205 c   0  0  0  0  0  0  0  0  0  0  0  0
   -0.4518   -1.1270    0.9278 h   0  0  0  0  0  0  0  0  0  0  0  0
   -0.4841   -1.1749   -0.8449 h   0  0  0  0  0  0  0  0  0  0  0  0
   -1.8603    0.1648   -0.0623 n   0  0  0  0  0  0  0  0  0  0  0  0
   -2.6131   -0.5138   -0.0752 h   0  0  0  0  0  0  0  0  0  0  0  0
   -1.9957    0.7570    0.7508 h   0  0  0  0  0  0  0  0  0  0  0  0
    1.7808   -0.1833    0.0210 o   0  0  0  0  0  0  0  0  0  0  0  0
    2.5007    0.4507   -0.0567 h   0  0  0  0  0  0  0  0  0  0  0  0
  1  2  1  0  0  0  0
  2  3  1  0  0  0  0
  2  4  1  0  0  0  0
  4  5  1  0  0  0  0
  4  6  1  0  0  0  0
  4  7  1  0  0  0  0
  7  8  1  0  0  0  0
  7  9  1  0  0  0  0
  2 10  1  0  0  0  0
 10 11  1  0  0  0  0
M  END
