  222

 H         -0.5425054114       -1.1597996593        0.9180873563
 C         -0.6112510055       -0.5412956715        0.0100749227
 H         -0.5391308393       -1.1969144476       -0.8712436640
 C          0.5103658647        0.5037878341       -0.0094871870
 H          0.3911098456        1.1518924077        0.8600966291
 H          0.3944399222        1.1152669968       -0.9056411644
 O         -1.7891825167        0.2100258084       -0.0077307060
 H         -2.5646581761       -0.3620747629        0.0026734576
 N          1.8637421187       -0.1172780968        0.0059475230
 H          1.9871272145       -0.7237037734       -0.8163106229
 H          1.9839787968       -0.6890763195        0.8531041606
 H          2.5930828885        0.6072400330       -0.0077051392
 O          3.6955184595        1.3201741091        1.2779343795
 H          4.5356894134        1.7623435954        1.0522127933
 H          3.9049408935        0.6340409406        1.9254563103
 O          1.9525805620       -1.3827555035       -2.3562831025
 H          2.8335666962       -1.1283849712       -2.7109476313
 H          1.2963005369       -0.9023378067       -2.9071453744
 O          0.2580530036        0.0333477431       -3.8472256858
 H         -0.3099163666       -0.5340461818       -4.3860114482
 H         -0.3697819459        0.5894745193       -3.3443172159
 O         -3.8061271703       -1.4543801835        0.3750784196
 H         -3.8355549230       -2.0346557916        1.1418798554
 H         -3.8653866662       -2.0363708136       -0.4122634515
 O          1.9669189185       -1.7107604232        2.1910467398
 H          2.0045897864       -2.5702884666        1.7259621455
 H          1.2192287902       -1.7688422086        2.8291230387
 O         -0.4481233906        3.1289765409        2.6636044984
 H         -0.8092595457        3.2829556747        1.7708802613
 H          0.5161397210        3.2780230205        2.6028357980
 O          4.2932419810       -0.7409925443        3.1552428242
 H          4.0690264251       -0.1992175189        3.9351085531
 H          3.4801986719       -1.2415479866        2.9208660587
 O          2.1845548856        3.5178416312        1.9973228559
 H          1.9865107033        3.8284829262        1.0902270447
 H          2.5611909984        2.6257971778        1.8863774446
 O         -0.6314110316        5.0543544479       -1.2875027439
 H         -0.9542756261        4.2931736134       -0.7606636341
 H         -1.2667026098        5.7587812117       -1.1586685271
 O         -1.6683291115        3.0870077105        0.2495662765
 H         -1.7710598513        2.1291407709        0.1648256103
 H         -2.5571495710        3.4766084039        0.0904683926
 O          1.8702983279        4.2803543259       -0.5361171765
 H          2.7100940425        4.7836812176       -0.6716642736
 H          1.1269270713        4.8059382938       -0.8613804824
 O         -1.5477361483        1.5028722748       -2.4668127902
 H         -1.7928396039        1.0390297053       -1.6499457476
 H         -2.3109774674        2.0693445902       -2.6919261439
 O          1.9054060431       -4.0518977567        0.8013579866
 H          2.7792649631       -4.3663003422        1.0820153012
 H          1.9907977541       -3.9969568386       -0.1814308273
 O         -1.5569554172        0.6804006024        2.7189691051
 H         -2.2500561006        0.9114961464        2.0671794287
 H         -1.0777388122        1.5219625719        2.8702126297
 O         -4.2150283834        1.0119444154       -1.2536156771
 H         -3.9376342427        1.0862925433       -0.3147885706
 H         -4.8489415069        1.7444888691       -1.3553656781
 O          4.0969876797       -1.6714940067        0.3069181807
 H          4.6093074667       -1.8870690175        1.0884876956
 H          4.5174128591       -0.8771641025       -0.0823812613
 O          2.3295054719       -3.9355403523       -1.8038899316
 H          2.1326838204       -3.0020291997       -2.0437212048
 H          3.3050259082       -3.9964765925       -1.7825626715
 O         -1.8616855788       -1.4880648990       -4.5724679760
 H         -2.5447094897       -0.8209575995       -4.3081929743
 H         -2.3201241253       -2.0917001918       -5.1592394142
 O          2.6608836884        1.9610168037       -1.5528234995
 H          2.4787682870        1.9707696869       -2.5183963409
 H          2.2633685070        2.7793047894       -1.1938920453
 O         -1.1898130152       -2.7806893580       -2.2989441167
 H         -0.7299683212       -3.5814900675       -2.6346924852
 H         -1.3626848859       -2.2368552104       -3.0956023256
 O         -3.9083878262       -0.0180322997       -3.7877042538
 H         -4.4207361921       -0.8595495237       -3.8658458626
 H         -3.8859069189        0.2336711202       -2.8496517104
 O         -6.2388661746       -0.6625333507       -0.9587426522
 H         -5.3518917579       -0.2463767593       -1.0406156207
 H         -6.3409384041       -1.3716716106       -1.6294614641
 O          5.4839792082        0.2012581602       -0.8804545462
 H          6.3704095890       -0.0478123716       -0.5664508574
 H          5.4969011098        1.1676823208       -1.0630948908
 O         -6.1721229887        2.8038234559       -0.6717954294
 H         -6.4621847969        2.4770911357        0.1975356716
 H         -6.8477951281        2.5347289970       -1.3104536942
 O          4.3936255585       -0.7362765573       -3.1140759558
 H          4.7679079040       -0.3730871936       -2.2772613704
 H          5.0208233302       -1.4243477054       -3.3709465150
 O          7.7219312050       -0.5887536330        0.4560579003
 H          7.7133104821       -1.5426521214        0.5475821914
 H          7.4571986589       -0.2157049091        1.3328123407
 O          6.2065338650       -2.4936853800        2.4159254025
 H          7.0015041936       -2.4953158601        2.9493284023
 H          5.5711880867       -1.9046584100        2.8690285826
 O         -3.7747731755        1.3779852218        1.3391611994
 H         -4.3772409757        0.7371116091        1.7607086257
 H         -4.0861796064        2.2636430687        1.6301315420
 O         -0.1414828270       -1.3916448081        3.6932015986
 H         -0.7221474773       -2.1602292500        3.5363670206
 H         -0.5922930780       -0.6233427279        3.2887738757
 O         -1.0001813987       -3.8232525609        0.3132749145
 H         -0.0722757314       -4.0554871910        0.4311396877
 H         -1.0624777963       -3.4029638454       -0.5565457630
 O          2.0947042251        2.0964305626       -4.1553452895
 H          1.5752569563        1.2904320936       -4.2953247592
 H          1.4262926504        2.8082433950       -4.0907695506
 O          3.5416646318        1.2201597202        4.8055299323
 H          3.1637886997        1.3416347305        5.6765867775
 H          2.7918206376        1.3587550145        4.1663912532
 O         -3.3663087472        3.4339123688       -3.0810859761
 H         -4.2090589953        3.0457663398       -3.4286029188
 H         -2.9658759531        3.9153107019       -3.8063234795
 O         -5.4837091696        2.1896244351       -4.0354128763
 H         -6.2770518979        1.9410238304       -3.5378355884
 H         -4.9918942386        1.3627243006       -4.1912813729
 O         -3.7497755800       -3.1348469361       -1.6797789086
 H         -3.8045245480       -3.9411142081       -1.1296868050
 H         -2.8044682752       -3.0451038414       -1.9330494936
 O          4.9440806978       -3.6162880817       -1.2782349011
 H          5.6225649000       -3.2407205869       -1.8553035701
 H          4.6129308805       -2.8563281227       -0.7410588046
 O          6.7411846938       -2.1345713302       -2.8946187605
 H          7.0231224996       -1.1903458967       -2.9479196536
 H          7.3904191239       -2.6250634901       -3.3971262310
 O          6.0569035707        2.5528788851        0.9772888042
 H          6.4954527505        2.7198188269        0.1352513190
 H          5.6615499811        3.3956554690        1.3075384344
 O          5.1549355781        2.7229322497       -1.6658080684
 H          5.2881258743        2.5957521554       -2.6223150944
 H          4.2016759384        2.4688965469       -1.5362920291
 O          4.9097351356        1.7342662771       -4.1836011979
 H          4.0890754658        2.1485744156       -4.4769496427
 H          4.6420600509        0.8286603274       -3.9379704019
 O          7.3596856388        0.4487225409       -3.2488464947
 H          7.5987531558        1.0098127543       -2.4918451679
 H          6.7248899494        0.9540380012       -3.7696046222
 O         -4.6536324835        3.7050690488        2.2850701319
 H         -3.9926836951        3.7274765929        3.0223052628
 H         -4.4154485546        4.4109770714        1.6788349037
 O         -3.8910280652        4.2978581325       -0.5485191384
 H         -4.7727198587        3.8963369496       -0.4888321294
 H         -3.6477322917        4.1693374945       -1.4832640670
 O         -5.4500289040       -0.1846737615        2.7838069296
 H         -5.8783031951       -0.8730600900        2.2440205083
 H         -4.7147694685       -0.6186236407        3.2601493974
 O         -6.8278953523        1.9877089997        1.8882095214
 H         -6.3528057916        1.2562484014        2.3197084233
 H         -6.3707868594        2.7851009703        2.1932240293
 O         -3.1957364822       -1.1872925500        3.8018935692
 H         -2.8833478692       -2.0744518630        3.5686799714
 H         -2.6137696135       -0.5628976899        3.3249839097
 O         -6.7772628398       -1.9763571177        1.2172104669
 H         -7.6539207601       -1.6116274325        1.3904130944
 H         -6.4783554921       -1.4815286132        0.3994104589
 O          4.7041276289        4.5434064474        2.0554960619
 H          3.7573943038        4.2861239405        2.1042384840
 H          5.0655014460        4.2847504794        2.9197146614
 O          1.4711906458        1.0876153442        3.2267983153
 H          0.8541095527        1.1362833599        3.9861649560
 H          1.5125582583        0.1647647706        2.9649302485
 O          4.3337823731        5.1929877558       -0.6872746608
 H          4.5864335984        5.2230839325        0.2447196207
 H          4.7813683439        4.4183686626       -1.0715373592
 O         -0.0468127898        3.6018853317       -3.5639297893
 H         -0.5460018750        2.8510408787       -3.2108706807
 H         -0.1328593765        4.2928447938       -2.8916454022
 O         -1.7480417099       -3.4121282261        2.9112900432
 H         -1.6448263859       -3.4666196353        1.9446015335
 H         -1.0785926461       -4.0330188460        3.2506297487
 O          8.0973631203        1.7935599019       -0.9314962402
 H          8.9445862510        2.2384544972       -0.9500278737
 H          8.2061225788        0.9901327958       -0.3997024815
 O          6.7804999509        0.6040904805        2.6327784739
 H          6.5851547945        1.4028168047        2.0963092178
 H          5.9241199883        0.2134995335        2.8459313200
 O         -3.6601490410       -4.9409361482        0.2829514633
 H         -2.6959735239       -4.9535068644        0.3352539962
 H         -3.9592891579       -4.4743474606        1.0823942607
 O         -2.7385573511        3.5051283562        4.0824616323
 H         -1.8623479468        3.5613073879        3.6643977265
 H         -2.7436995105        2.6560264857        4.5483407325
 O         -4.6600989542       -3.3582776332        2.3050857777
 H         -5.5262459247       -2.9953965953        2.0586515188
 H         -4.7186164696       -3.6923771364        3.2000387133
 O         -8.7117375406        0.0536242891        1.1818436459
 H         -8.0797583453        0.7811235062        1.3112823358
 H         -9.5132368771        0.3198653045        1.6339923028
 O          5.5756929898        2.9669754212        4.1079786936
 H          6.3287548902        2.3850733273        3.9783871132
 H          4.8387807654        2.4043528904        4.3988639927
 O          4.6194530665       -4.5189760044        1.3833713434
 H          5.3107195082       -3.9340246673        1.7340524995
 H          4.7899576535       -4.5493264840        0.4297155940
 O         -7.5582033871        1.2144983834       -2.3798580363
 H         -7.1487927422        0.5029021815       -1.8390951990
 H         -8.4199236063        0.8756194004       -2.6268163332
 O          0.6618947380       -4.5616776181        3.2918300577
 H          0.9446909774       -4.7022937410        2.3801747666
 H          1.4337868691       -4.1714490467        3.7265090919
 O         -2.8409577045        1.0295371508        5.4364105620
 H         -3.6479373948        1.2349939744        5.9065410517
 H         -2.9889001263        0.1739844121        5.0020613317
 O          0.0049784062        0.7713228818        5.4534442929
 H         -0.0500301516       -0.1773720931        5.2781255056
 H         -0.9063915539        1.0752591308        5.5506126678
 O          3.2702929023       -3.5991809387        3.7389410349
 H          3.7021034108       -4.0386810653        2.9932323342
 H          3.7774041841       -3.8129608565        4.5202732919
 O         -4.9485200632       -2.4211130270       -3.9938907417
 H         -4.5245894700       -2.8247114248       -3.2134790500
 H         -5.8954492817       -2.5024359683       -3.8206198134
 O         -7.2073728953       -2.5798770199       -2.4992638376
 H         -8.0523287266       -2.1672929168       -2.2645228624
 H         -7.0785523759       -3.3322220105       -1.8899892265
 O         -6.6304769586       -4.2598016536       -0.4477447090
 H         -5.7919188545       -4.7153468485       -0.3331550422
 H         -6.6854542807       -3.5788126408        0.2393913701
 O          0.2212358193       -4.8420254739       -3.1936732702
 H          0.4724187588       -4.7887264360       -4.1158118815
 H          1.0386845336       -4.7122521560       -2.6753611532
 O         -9.2055614962       -0.9818005180       -1.3695125758
 H         -8.9222196584       -0.5972377963       -0.5214670919
 H        -10.0794312399       -1.3444835562       -1.2280441359
