  222

 H         -0.5425054112       -1.1597996585        0.9180873602
 C         -0.6112510051       -0.5412956740        0.0100749183
 H         -0.5391308395       -1.1969144470       -0.8712436602
 C          0.5103658647        0.5037878335       -0.0094871840
 H          0.3911098457        1.1518924072        0.8600966290
 H          0.3944399221        1.1152669956       -0.9056411630
 O         -1.7891825170        0.2100258093       -0.0077307041
 H         -2.5646581753       -0.3620747641        0.0026734602
 N          1.8637421187       -0.1172780948        0.0059475211
 H          1.9871272141       -0.7237037739       -0.8163106224
 H          1.9839787969       -0.6890763205        0.8531041600
 H          2.5930828886        0.6072400317       -0.0077051380
 O          2.9648526902        0.8077258155       -2.6733131894
 H          2.6433715408        0.2587857547       -3.4112958764
 H          3.8391578670        0.4160745327       -2.4262286389
 O          1.8423598046       -1.9804076381       -2.0172042166
 H          0.9928482396       -1.8751715346       -2.4899644031
 H          1.7863664712       -2.8393750669       -1.5358231424
 O         -0.3224534226       -1.3729184571       -3.5546527155
 H         -0.2098007027       -0.4814224222       -3.9577639654
 H         -1.0866398434       -1.2410919255       -2.9450361109
 O         -2.6182546419       -0.8856477136       -2.4037591606
 H         -2.7872076995        0.0137200295       -2.0654158047
 H         -3.1485572011       -0.9570931978       -3.2193545565
 O          1.8426253480        0.5848769612        2.7748213965
 H          1.8382620559        1.4445663437        3.2288098117
 H          0.9534354940        0.2118072152        2.9033216832
 O         -0.5937122654        1.9969671735        4.8962733649
 H         -1.4326805229        2.4760361485        4.7725297655
 H          0.1332972547        2.5867209123        4.6479494803
 O         -0.5690542328       -3.5685928942       -1.3756253866
 H         -0.0979806520       -4.3871816920       -1.5426097009
 H         -1.5220701739       -3.7682478072       -1.3666575524
 O         -3.2782448754       -3.4748602372       -1.9358253369
 H         -3.1605926634       -2.5340425216       -1.7145298034
 H         -3.0656484733       -3.5319565812       -2.8799263255
 O          0.9263357104        2.6684186477       -2.4890385340
 H          1.6879223844        2.0783764445       -2.3799023197
 H          1.1766598682        3.5186978013       -2.0588236796
 O          3.0621279788        2.2707894967        0.4698622674
 H          3.4939118054        2.8772344568       -0.1581621770
 H          3.5724816898        2.3194101588        1.3070432335
 O         -3.9450568839       -1.4264268867        0.0855417740
 H         -3.3954933791       -1.9995598249        0.6507094075
 H         -4.7140554225       -1.2087539918        0.6481189998
 O         -1.3471807431        2.8166245446        0.7605151671
 H         -1.4190493241        3.1591156973       -0.1605459766
 H         -1.5782678731        1.8731936411        0.6857087296
 O          4.3150166923       -0.2653134893        2.8373318331
 H          4.5350619682       -1.1213131921        3.2221530459
 H          3.3417332560       -0.1459584379        2.9105454784
 O          1.7405099880        3.1250881509        3.8157399803
 H          2.7012291174        3.1979177395        3.8458562989
 H          1.4743599420        3.5582890814        2.9776045900
 O          1.0902251777        3.8162183176        1.3052909239
 H          0.1994230949        3.4358979292        1.1775689632
 H          1.7454203403        3.1381344327        1.0119186116
 O         -3.5618920419        1.5786339386       -1.9917213494
 H         -3.7176006440        1.6085117459       -1.0091138793
 H         -4.4647460950        1.5589127655       -2.3651125060
 O         -4.2790119110        1.6150026025        0.5079215177
 H         -5.1706716094        1.2446207448        0.3161357538
 H         -3.8483692627        0.9945757010        1.1264513378
 O         -3.5544746225        3.8548739337        1.7657653956
 H         -4.0839833356        3.1139075121        1.4058280588
 H         -2.6376540463        3.5861713156        1.5366715382
 O         -0.7384306993        0.0153022993        3.1590529312
 H         -0.8738894391       -0.7806865860        3.7037057572
 H         -0.7316175275        0.7755513120        3.7868347435
 O         -3.2850604801        0.1406249939        2.4874293232
 H         -2.3107233372        0.1655734919        2.5974614732
 H         -3.5725737515       -0.7009835222        2.8755547495
 O         -5.6222007714       -1.2780855355       -2.1459438734
 H         -6.3670440276       -1.6090020831       -1.5958042279
 H         -4.8896376442       -1.2312423280       -1.5065653920
 O         -0.0074684594       -3.6747948016        1.2831306831
 H          0.7223175623       -3.0257157595        1.4002414982
 H         -0.2034365495       -3.6781944532        0.3266652541
 O          2.0699498164       -2.1029448535        1.7588433930
 H          2.0942073598       -1.9912246722        2.7425240453
 H          2.8368450187       -2.6663325750        1.5376718807
 O         -2.4706717055       -2.7200276113        2.0171903983
 H         -1.7824051240       -3.2891763518        1.6264136097
 H         -3.2595478526       -3.2722067417        2.1684317590
 O          4.5222526767       -0.3409842574        0.1814514194
 H          4.5359443567       -0.2981247265        1.1626766238
 H          4.9714710061        0.4506741026       -0.1550763806
 O         -6.0686132098        1.2384447747       -2.8516122384
 H         -6.3269519155        1.2436519502       -3.7731053331
 H         -5.9864240223        0.2853173229       -2.5807602779
 O          4.0704266707        2.9560444696       -3.7779029650
 H          3.5352192842        3.2606460222       -4.5106048336
 H          3.6317871045        2.1460434793       -3.4109549003
 O          5.7856809016        1.9835747363       -0.5690626802
 H          6.5666878627        1.7489396824       -1.1210204295
 H          5.4101518478        2.8093883137       -0.8947506160
 O         -6.1215482061        3.5329327872       -0.9223267173
 H         -6.0846886346        2.9018403853       -1.6474869037
 H         -5.3337080674        4.1088917637       -0.9906509886
 O          5.1627269249       -2.5639487015       -0.9702061434
 H          4.8946282635       -1.6931981603       -0.5555546732
 H          4.7423534570       -2.5662735115       -1.8355767048
 O         -5.6144606681        1.1492090355        3.3496436268
 H         -4.6746576230        0.9779897448        3.1526517602
 H         -5.8688308780        1.8937079716        2.7805405268
 O         -4.2535154545       -1.1928249483       -4.5345149396
 H         -3.8391138465       -2.0168883421       -4.8177455269
 H         -4.9371152823       -1.4190608907       -3.8813765478
 O         -3.7788131414        4.9464530348       -0.7479550045
 H         -3.7124492554        4.7063491907        0.1970407212
 H         -3.0836451243        4.4580946287       -1.2104542502
 O          3.8883122217       -2.4109443939       -3.6187517962
 H          3.6655109413       -2.0541961081       -4.4832635010
 H          3.1041130373       -2.2001366791       -3.0445090505
 O          5.8122227680       -2.6162040893        2.8970333527
 H          6.4162336490       -1.9826657881        2.4467729468
 H          6.2891167092       -2.9679909542        3.6475015372
 O          4.3692807847        2.4712011755        2.8380318858
 H          5.3028671833        2.6488012407        2.6681873561
 H          4.3542702472        1.5227207464        3.0504428512
 O          7.6095312776       -1.4894213075       -1.0256767180
 H          6.7163181018       -1.8887746443       -1.1342059870
 H          8.2505384140       -2.1745969773       -1.2125672369
 O         -5.9477298400       -1.2430790505        1.9302191120
 H         -5.5894835337       -1.9941178552        2.4265894682
 H         -5.8952126697       -0.4630814447        2.5108068405
 O          4.0815095882       -3.7853513644        1.1557947526
 H          4.5180605078       -3.4520181016        0.3447591736
 H          4.6851018368       -3.5193983845        1.8727242648
 O          1.4148425815        4.9183814383       -1.1270784195
 H          0.6455714777        5.4952667613       -1.2304098419
 H          1.3449263565        4.6274697126       -0.1899937640
 O          7.3806349443       -0.8033965802        1.6415467743
 H          7.2939649588       -0.9857634638        0.6882052908
 H          6.9658491752        0.0665416995        1.8160780218
 O         -1.6649950935        3.4195727322       -1.7974223616
 H         -2.2889270587        2.7038087163       -2.0192738492
 H         -0.8111032437        3.1989523130       -2.1921610515
 O         -7.3093017801       -2.2057386859       -0.2971531472
 H         -8.1437281498       -1.7118245010       -0.3452645498
 H         -6.8656375312       -1.8436578662        0.4912307741
 O          2.1448566097       -0.6277361833       -4.8995005081
 H          1.4727464279       -1.2577096782       -4.6161530706
 H          1.6456619905        0.1062037129       -5.2785183345
 O         -6.5686198546        3.1790734859        1.6766786958
 H         -6.4645148583        4.0694525332        2.0135059972
 H         -6.4180004271        3.2456223352        0.7032774441
 O          8.0254611174        1.1705151826       -1.6978450349
 H          7.8107558644        0.2217571836       -1.7030605191
 H          8.6232517914        1.2765137784       -0.9393285809
 O          5.3542487560       -0.2752662521       -2.6123220994
 H          5.8408772404        0.3605090556       -3.1810983361
 H          5.1286244009       -1.0260558564       -3.1747221921
 O         -4.9003232049       -3.8451166611        2.1706175168
 H         -5.1040505468       -4.0207115704        1.2188791959
 H         -5.3323504295       -4.5267676755        2.6815595089
 O         -5.4063780078       -4.2557071150       -0.3993832837
 H         -6.1925721901       -3.6987569889       -0.4969965940
 H         -4.7468416724       -3.9074403490       -1.0272799924
 O         -6.6097427218        0.5795194851       -0.1048539919
 H         -7.2062781734        0.6183645569        0.6591653763
 H         -7.0628017186        1.0109695243       -0.8316412527
 O          6.8548047148        1.8745308055        1.8464081770
 H          7.7817816490        2.0998619783        1.7332298254
 H          6.4400109075        1.9763979739        0.9592380962
 O         -1.5884561071       -2.2236078052        4.4783311365
 H         -1.9127628530       -2.4184308921        3.5642197096
 H         -0.9700233887       -2.9404484511        4.6697429551
 O          2.1070923952       -2.0592647569        4.3644526360
 H          1.5416413324       -2.8470155825        4.4441367109
 H          1.6736204623       -1.3725627719        4.8997543549
 O          2.0712505702       -4.3688177215       -0.8669314436
 H          2.6627726277       -4.7560740658       -1.5409139069
 H          2.6030097885       -4.3101575151       -0.0655022141
 O         -8.3056799390        1.1018920324        2.0195218710
 H         -7.9283841058        0.7331891662        2.8229352975
 H         -7.9231897079        1.9944421614        1.9368190517
 O         -9.4157140225       -0.4430559355       -0.0548934715
 H         -9.2059857309        0.0991446454        0.7209328666
 H        -10.3583823500       -0.6029911241       -0.0368337216
 O         -2.7047660205        1.2363940424       -4.7022177278
 H         -2.9934868342        1.4958611433       -3.8189587784
 H         -3.2446496294        0.4755934985       -4.9483976676
 O          0.3287803309       -4.1442222322        3.9949250842
 H          0.9625340043       -4.8648435207        3.8755474595
 H          0.0269285143       -3.9743264120        3.0873629326
 O         -0.0118237914        1.0814563125       -4.5804543806
 H         -0.9538233280        1.2510839062       -4.7748932545
 H          0.2559350559        1.7369280583       -3.9166461847
 O          0.4426190650       -0.4464288249        5.8286167364
 H         -0.3779107194       -0.9448962040        5.8694508057
 H          0.1997702915        0.4844876915        5.7303725782
 O          3.9668456695       -4.9746089312       -2.6779689701
 H          4.8126790138       -5.0366794621       -2.2311888829
 H          3.9905411341       -4.1607499555       -3.2110592326
 O          9.3501386251        0.9526530731        0.7355296068
 H          8.8594967503        0.2187255700        1.1513531107
 H         10.2807473577        0.7455527976        0.8105258143
 O         -3.0951247164        2.9490936842        4.3014114447
 H         -3.2762682162        3.3893121396        3.4475091292
 H         -3.9179100693        2.5402668560        4.5754331317
 O         -2.2158498594       -3.1644526252       -4.4848894128
 H         -1.4901617061       -2.5558039695       -4.2367482344
 H         -1.7996116629       -3.9408147221       -4.8561112314
 O         -4.3231244390       -1.6582430804        4.3082171019
 H         -3.4720483633       -1.9377817610        4.6746975080
 H         -4.7166295632       -1.0448107147        4.9299528574
 O          4.0687890093        4.0854014409       -1.3147664013
 H          3.2953322031        4.6626364301       -1.2354377913
 H          4.0990567326        3.8181072603       -2.2517257539
 O          1.9661840016       -5.5004442263        2.2398708688
 H          2.8094619601       -5.1084413074        1.9923658589
 H          1.2948854482       -5.1012031467        1.6659551074
 O         -2.4379359502       -5.0250132411        0.3714668620
 H         -2.3255042624       -5.9185199125        0.6927716243
 H         -3.3135481539       -4.9638579627       -0.0219217568
 O         -1.0272171346        5.9888215292       -0.3678148921
 H         -1.0048897066        5.9306113363        0.5892147399
 H         -1.9555858939        5.9847514524       -0.6289062280
 O          6.5057747316        1.6082329913       -4.0769824655
 H          7.2293940991        1.8544355576       -3.4906586136
 H          5.8199805639        2.2914419538       -4.0168197696
