  252

 H         -0.5425054106       -1.1597996570        0.9180873614
 C         -0.6112510052       -0.5412956746        0.0100749163
 H         -0.5391308383       -1.1969144458       -0.8712436653
 C          0.5103658652        0.5037878344       -0.0094871793
 H          0.3911098464        1.1518924136        0.8600966245
 H          0.3944399222        1.1152669968       -0.9056411664
 O         -1.7891825175        0.2100258092       -0.0077307052
 H         -2.5646581749       -0.3620747649        0.0026734598
 N          1.8637421186       -0.1172780960        0.0059475207
 H          1.9871272147       -0.7237037722       -0.8163106201
 H          1.9839787962       -0.6890763185        0.8531041585
 H          2.5930828887        0.6072400327       -0.0077051370
 O          1.4920166149       -0.6024690222        2.8110417253
 H          0.5390884549       -0.5018126489        3.0622327926
 H          1.9591954655       -0.6851576075        3.6638699838
 O          2.1943074136       -2.1480761488       -1.7679154085
 H          1.6159800012       -2.1694710361       -2.5547312712
 H          3.1049965740       -2.0904539610       -2.1226579750
 O          3.5992557897        1.8965448983        0.2198635560
 H          3.2508407312        2.1051562927        1.1071856565
 H          4.5207355533        1.6120501497        0.3440548862
 O         -0.9763220319       -0.1413245482        3.5026505606
 H         -1.1412741995        0.6704837199        2.9671460947
 H         -1.6962677535       -0.7768158147        3.3172686158
 O         -1.6785974567       -3.1033919903       -2.5597420394
 H         -2.4813932424       -3.5384671760       -2.2348829747
 H         -0.9709466193       -3.4148941115       -1.9627109379
 O          0.6422448263       -1.9093392369       -3.9753766632
 H         -0.1523746359       -2.4184534741       -3.7876589169
 H          0.4134364226       -0.9713335633       -3.8103542635
 O          4.1757028253       -1.2481755763        0.1947776017
 H          4.6289119584       -2.1091670583        0.3487393909
 H          4.2196015724       -0.8193421370        1.0688002625
 O          2.1516805687        1.9687958973        2.4108454639
 H          1.9486664876        1.0233942453        2.5693090687
 H          1.8945374405        2.4424777155        3.2236872181
 O          2.7062674110        0.5568839072       -2.5508280547
 H          2.9746911414        1.4903219211       -2.5570315293
 H          1.7480354603        0.5640630937       -2.7161078371
 O          0.1276304393        0.6239618439       -3.2302439360
 H          0.1186086153        1.4354340806       -3.7749131969
 H         -0.7996465951        0.3971962843       -3.0007656804
 O          0.1854687217       -4.0913130076       -0.8158609551
 H          0.9612695940       -4.6011773116       -1.0801335996
 H          0.4980869563       -3.5101654342       -0.0976337804
 O          0.9464874638       -2.9209361167        1.5249400116
 H          1.2064262794       -2.1666253011        2.0873995316
 H          0.2403917502       -3.3850360970        2.0308778067
 O          5.6567478441       -0.2127190929       -1.6036553251
 H          5.0225555920       -0.5125965822       -0.8885078360
 H          5.3466143195        0.6411106687       -1.9577133887
 O          0.4724521129        2.9717053981       -4.4978731916
 H          0.6316301526        3.5534077523       -3.7440655651
 H          1.3519531725        2.7581647084       -4.8567090856
 O         -1.1707306301        2.0431614065        2.0476897123
 H         -1.7018618222        2.7227328415        2.4968652779
 H         -1.7080696293        1.6999493560        1.3205295891
 O         -3.6916215008        2.3995119942        0.8566842362
 H         -3.9891357825        1.9545330585        0.0494839417
 H         -4.4410826158        2.9069326692        1.2347021709
 O          0.5247640454        3.8894916616       -1.8012268366
 H         -0.2366872604        3.2787012421       -1.8182852635
 H          0.6770607539        4.0616258394       -0.8542756875
 O          1.1580005011        3.9362579580        0.8611292141
 H          1.3672900291        3.0907451821        1.3036513230
 H          0.5789195537        4.3935316728        1.5038467617
 O         -2.6507440756       -2.4453437193        0.1323362194
 H         -3.3328099251       -2.3721544665       -0.5559544209
 H         -2.4303035476       -3.3850628718        0.2340632855
 O         -2.7370234267       -2.0254048296        2.7884251663
 H         -3.6579066323       -2.0264011174        3.0972858993
 H         -2.7657570579       -2.0999911064        1.8109080680
 O         -4.1964891874        0.9189896638       -1.5043022109
 H         -4.5006811524        0.1939157125       -0.9357891027
 H         -3.4180445735        0.5168007581       -1.9532285825
 O         -2.2472514745       -0.4048421032       -2.7702893758
 H         -2.6783190535       -0.3608911541       -3.6553209573
 H         -2.1431939625       -1.3531632091       -2.5673366203
 O          5.3541387003        2.0292893616       -3.0360826964
 H          4.5816973036        2.6037853022       -3.0940775244
 H          5.4862763920        1.5910224685       -3.9085901876
 O          6.1471577787        1.4836294911        0.7569911982
 H          6.5692514757        2.0162624652        0.0389528869
 H          6.8622614615        1.0604859242        1.2433228158
 O         -0.9818069996       -4.0470618921        2.9811804383
 H         -0.4253513951       -3.8823593746        3.7589775094
 H         -1.6765050224       -3.3570779125        3.0239139439
 O          7.8923361749       -0.6713991857       -0.0985575017
 H          7.0499750143       -0.4853484195       -0.5570213017
 H          8.5411785440       -0.1010083904       -0.5356107436
 O         -3.8144459396        0.7246244012        3.0524750294
 H         -4.7365804713        0.8839614513        3.3288874580
 H         -3.6221838126        1.4137774407        2.3927846766
 O         -1.7392103814        2.4183424822       -1.6093938130
 H         -1.9383479785        3.1077814802       -0.9563891192
 H         -1.7616120118        1.5731645404       -1.1208627208
 O         -4.4315804675       -0.5764802218        0.7889262775
 H         -4.1517758592       -0.3648317104        1.7051616928
 H         -4.7671592723       -1.4926408701        0.7903012868
 O         -4.5831271010        3.6867270681       -2.0158650801
 H         -3.8625735220        4.3444992993       -2.0703630007
 H         -4.1651838952        2.8209022283       -1.9043042023
 O          4.4224569573       -0.5328529882        2.6986985581
 H          4.3994019440        0.2422933663        3.2953823337
 H          5.3585963310       -0.8223713154        2.6500957317
 O         -4.5448811152       -1.8228906200       -1.8415015767
 H         -4.4403978889       -2.2006589517       -2.7316003403
 H         -5.4968614259       -1.7480863099       -1.6796994168
 O          3.1351178506        3.2447312337       -2.0493695172
 H          3.2979976166        2.8690144333       -1.1605206557
 H          2.2152614228        3.5641749294       -2.0379488214
 O         -5.4828175592        3.7542090512        2.2894382573
 H         -6.1007994142        3.9533538556        1.5733178708
 H         -5.9061623546        3.0640831622        2.8291041570
 O         -5.6609351531        0.7963263642       -3.7703767030
 H         -5.5417308448        1.7012032003       -4.1635897601
 H         -5.2033389282        0.8311398500       -2.9022380201
 O         -6.5504103461        3.2940523256       -0.2059131547
 H         -7.4105027022        3.1531223048       -0.6224108536
 H         -5.9190352951        3.5504713435       -0.9060226791
 O          4.5614931251        1.4387878924        4.5043077056
 H          4.7364883768        2.2127625631        3.9325286949
 H          5.4437309443        1.0641950850        4.7113817748
 O         -1.9259756382        4.4010838187        0.3525133203
 H         -2.6251271118        3.8466331322        0.7431776256
 H         -1.4225237789        4.7636700597        1.0865332597
 O         -1.9075040000       -5.0731348322        0.5488539725
 H         -1.0784904132       -4.9177192283        0.0536892318
 H         -1.6712766342       -5.0011824507        1.4847192852
 O          3.4149364143       -2.7498782112        3.9340841160
 H          3.7677268697       -1.9973715417        3.4161686569
 H          3.5399415095       -3.5336002159        3.3888738493
 O          5.3053111144        3.2443175669        2.6433105245
 H          5.5185188521        2.6209189345        1.9189384820
 H          4.7007074500        3.9000464077        2.2606388416
 O          3.5625057550        4.9564278565        1.3550801838
 H          3.4050719188        5.8217030598        1.7309528943
 H          2.6760526135        4.5931876422        1.1073851719
 O          2.8890788249       -4.7484270071       -1.0527616255
 H          2.7555674359       -3.7964351094       -1.2208264069
 H          3.7853427125       -4.9463179456       -1.3450538299
 O          3.0787111879       -4.5520668599        1.6745489420
 H          3.0199299374       -4.9793128469        0.8047896361
 H          2.3092883716       -3.9437774542        1.6757200333
 O          0.7973422227       -2.8337233554        4.6464042297
 H          1.7461843223       -2.8654364105        4.4075990174
 H          0.7542567662       -2.6951814275        5.5909301851
 O         -5.5740367476       -3.1193596064        0.4956736890
 H         -6.3198127092       -2.7638983631       -0.0033658715
 H         -5.0442321945       -3.6398616068       -0.1286387717
 O          4.5762188381       -2.2264616554       -2.9947072661
 H          5.0645339929       -1.4978886324       -2.5578113437
 H          4.2975885233       -1.8998532569       -3.8619724983
 O         -4.9438457476        3.1487603298       -4.6328397903
 H         -5.0022928178        3.6142031549       -3.7797063329
 H         -3.9932089145        3.0093343198       -4.7707746219
 O          5.1975550516        4.8366496527       -0.8891493126
 H          4.5384978799        4.4874833990       -1.5054286700
 H          4.7272072618        4.9438589853       -0.0476691210
 O          7.0666141702        2.9577957772       -1.2299118390
 H          6.6118352855        3.8016688947       -1.0263680910
 H          6.5406037476        2.6071935820       -1.9794672997
 O          9.0796563381        1.1897073112       -1.7581757706
 H          9.9564664184        1.5698756963       -1.7916592271
 H          8.4593623820        1.9205589160       -1.5815519854
 O         -7.1785680778       -1.3396318624       -1.0093019741
 H         -7.0372532922       -0.5861772182       -0.3971401228
 H         -7.5799053964       -0.9442336840       -1.8008903510
 O         -6.6584447275        0.7449436466        0.6579657049
 H         -5.7576266840        0.3486702111        0.7235911489
 H         -6.5792904379        1.6452965408        0.2880895896
 O         -6.4337938515        1.3922494369        3.2497219596
 H         -6.9987237586        0.8529362125        3.8095801607
 H         -6.6705758569        1.1177555184        2.3341211482
 O          2.6167669655       -0.3072167852        5.2840085283
 H          3.1131455265       -1.1177243049        5.4286677471
 H          3.2756754978        0.3934798454        5.1297901284
 O          3.1967285308       -0.7065317848       -4.7978192920
 H          2.4109486821       -1.2452858428       -4.9365027793
 H          3.0635642363       -0.2710176160       -3.9120570502
 O         -0.3016584991        4.9090632171        2.8863101344
 H         -1.2271852713        4.7571794780        3.1380987135
 H          0.2119811963        4.3993895686        3.5347880019
 O         -2.7921046145        3.8863804663        3.2887976162
 H         -2.7926376192        3.3483434363        4.1129102048
 H         -3.7168048662        4.0640831562        3.0777855760
 O         -2.6454526848        2.0451869249        5.1863093652
 H         -1.8136091303        1.7542501865        5.5697944105
 H         -2.9606111859        1.3338705421        4.6009716299
 O          6.8548471973       -1.5682454910        2.2797095248
 H          7.3708320919       -1.2333448434        1.5278309516
 H          6.4845075807       -2.4075815093        1.9564707961
 O          0.1546290192        1.0053015160        5.6068371411
 H         -0.3081123764        0.5001354891        4.9039676263
 H          0.9725499215        0.5137363419        5.7655184647
 O         -3.4674960965       -0.0476598499       -5.0842603588
 H         -3.0326116119        0.8068922197       -5.2204849144
 H         -4.3652047772        0.1712983599       -4.7541749537
 O         -2.2835396375        2.3921209046       -4.3544710556
 H         -1.4565069117        2.7338498121       -4.7136256302
 H         -2.1734269304        2.4092805014       -3.3873859890
 O          5.7405112385        0.5328794539       -5.1656048545
 H          6.4960403686        0.0419088689       -4.7923394778
 H          5.0088244621       -0.0906453863       -5.2461107389
 O          2.9870536302        2.0816237192       -5.1143547517
 H          3.7474250299        2.4297528176       -5.5795784139
 H          3.0172015002        1.1182499912       -5.2333436247
 O          7.6159957998       -0.5808339733       -3.4736617426
 H          8.3306162502        0.0006392902       -3.1859974093
 H          6.9371139293       -0.4879171238       -2.7840475615
 O          5.4085939049       -3.4575373663        0.9218463375
 H          5.6059005581       -3.8822911923        0.0591041678
 H          4.6458859490       -3.9412767167        1.2988308791
 O         -5.4515765233       -2.0623471479        3.0579470505
 H         -5.6077703705       -2.7059273126        2.3555500892
 H         -6.2886962211       -1.5836131235        3.1645994623
 O          6.9635010124        0.2476496759        4.4481877846
 H          7.0479586846       -0.5786124109        3.9550273808
 H          7.4765364075        0.8986741697        3.9450539379
 O          5.7104115058       -4.2938574572       -1.6024899026
 H          6.6556456351       -4.0644564260       -1.6832802540
 H          5.2752999839       -3.6550026481       -2.1906619788
 O          7.9359169320        2.2239327086        2.7680695096
 H          8.7351777618        2.7473571627        2.7915466349
 H          7.1875303830        2.8267373364        2.8969598666
 O         -3.8605083776       -4.6277806769       -1.2781641192
 H         -4.2548725804       -5.3502206119       -1.7661426673
 H         -3.2671604138       -5.0178649131       -0.6104688498
 O          8.0271771092       -2.9068746488       -1.8157695144
 H          8.0213715654       -2.3491915658       -2.6050154624
 H          8.0975363685       -2.2999750654       -1.0625913693
 O         -8.0955927734        0.2055741507       -3.0548931857
 H         -8.6066084453       -0.0489975963       -3.8221181763
 H         -7.1887063589        0.4500569575       -3.3876308779
 O         -3.9495394330       -2.7232709636       -4.3602158236
 H         -3.0815278723       -3.1298720804       -4.2947385335
 H         -3.8423527159       -1.9307820392       -4.9013762474
 O         -8.8262305426        1.8953264080       -1.0319662072
 H         -9.7302115187        2.1736191136       -1.1785654833
 H         -8.5827505066        1.3198127211       -1.7821982849
 O         -9.2744131735       -0.3234380962        0.7858383697
 H         -9.0314900002        0.5320146945        0.3983894265
 H         -8.9298676686       -0.9927348592        0.1843396740
 O         -7.9792926011       -0.8803100705        3.1006643148
 H         -8.5978214338       -1.4502935115        3.5561316944
 H         -8.4217072454       -0.6230474698        2.2610579544
 O          1.1621756382        3.2089793864        4.5723618017
 H          1.7907482658        3.5200473449        5.2231123522
 H          0.6966325109        2.4319872055        4.9819427548
 O         -2.4255263410        5.3065972098       -2.1423473796
 H         -1.5989779340        5.2370506284       -2.6238829310
 H         -2.1982222610        5.2593830039       -1.1988036388
