  612

 H         -0.5425058497       -1.1597967566        0.9180863744
 C         -0.6112503951       -0.5412976268        0.0100761976
 H         -0.5391302181       -1.1969104101       -0.8712429397
 C          0.5103639789        0.5037868960       -0.0094945940
 H          0.3911109985        1.1518940144        0.8600982790
 H          0.3944399173        1.1152672565       -0.9056430399
 O         -1.7891811237        0.2100277334       -0.0077331601
 H         -2.5646600474       -0.3620721261        0.0026721009
 N          1.8637417973       -0.1172816305        0.0059569991
 H          1.9871274051       -0.7236993167       -0.8163107380
 H          1.9839786808       -0.6890730293        0.8530973952
 H          2.5930849403        0.6072388971       -0.0077043721
 O          1.5202259830        4.8180864814        4.6027210225
 H          0.7524936263        5.1568199792        5.0992939983
 H          1.2292860784        3.9473109994        4.2401946389
 O          1.6871418962       -1.6155450820       -2.1769533316
 H          2.3768327728       -2.0898382130       -2.6844701231
 H          1.3428952984       -0.9497637823       -2.8105078108
 O          0.8864669572        0.2590647311        4.7425947934
 H          0.6452264971       -0.4628454082        5.3493361439
 H          1.7501892126        0.6116287568        5.0228565214
 O         -0.2177648096        2.6200490847        6.0037295328
 H          0.1505449380        2.3561140480        5.1450159537
 H          0.5288835173        2.5400029857        6.6377659838
 O         -1.3315810723        0.5100608518        3.1379435321
 H         -1.1589937326       -0.4623068994        3.1300264270
 H         -0.4753614166        0.9274850310        3.3001550707
 O         -3.9641986737       -1.1979208508        0.0356923771
 H         -4.3359296172       -2.0040408903       -0.3787411864
 H         -3.9804317149       -1.3522895392        1.0009066657
 O          2.8678070430        1.1910964950       -2.3291883297
 H          2.4246229294        1.8734702865       -1.7894038248
 H          2.2524071753        0.9066695019       -3.0262669493
 O          2.7530523914        3.4972089007        1.8236828202
 H          3.0069481884        4.4327147907        1.8622282009
 H          3.5147163395        3.0335892198        2.2343637037
 O          0.6515263346        2.6297673221        3.3494483043
 H         -0.1786209637        3.0126428767        3.0061418720
 H          1.3411924341        2.7915653743        2.6778147771
 O          1.6848629047       -0.9920819511        2.5709645352
 H          1.5479493134       -1.9441074436        2.6503358637
 H          1.2542597952       -0.5665231790        3.3475156060
 O         -0.8780432242       -2.0325109437        3.4029596705
 H         -1.1815482439       -2.6492189359        2.7146228699
 H         -1.4219678554       -2.1808648408        4.1989728014
 O         -2.0511159121        0.6935574757        5.7045169629
 H         -1.2425212891        1.1288328550        6.0241828221
 H         -1.8838313596        0.5279165694        4.7457563740
 O         -1.3239519988       -3.6935539832        1.3582640528
 H         -0.4455479216       -3.4282981771        0.9805802252
 H         -1.9194588331       -3.5999207495        0.5892918657
 O          4.4607768973       -0.8716109116       -1.4010696491
 H          3.9175809270       -0.2795057027       -1.9500735860
 H          4.8328232306       -1.5609719047       -1.9797840650
 O          1.2726532656        0.0568880347       -4.1443439065
 H          1.4384938696       -0.5937662983       -4.8519945359
 H          0.4332726014        0.4848763598       -4.3813240406
 O         -3.1353690724        1.7820560795        1.6771547043
 H         -2.4234955692        1.1798095365        1.9654480803
 H         -3.9608187220        1.3065968209        1.8575305622
 O         -0.1958442373        2.2488930192       -2.4881097819
 H         -0.9978523724        2.3513103808       -3.0330759618
 H         -0.1143612331        3.0954905939       -2.0127533196
 O         -2.5933363806        2.5288288361       -0.9985241303
 H         -2.0932079885        1.8830094134       -0.4738869305
 H         -2.5041989466        3.4039946856       -0.5633058088
 O         -0.0341425926        3.8425625289        1.0095379765
 H          0.5324322820        3.5417001875        0.2762038225
 H          0.4548535328        4.5395307756        1.4728996642
 O         -1.9418609786        3.6549248363        3.1541578583
 H         -2.3653713297        2.9986035793        2.5622396019
 H         -2.3049151291        3.4976201048        4.0419984105
 O          1.9199275509        3.1509088949       -0.7365873042
 H          2.4636707668        3.2483150904        0.0650955787
 H          2.1685035907        3.8533447012       -1.3681028206
 O          3.4282362196       -2.2100034415        0.6272647264
 H          3.9080696341       -1.6789915945       -0.0406274281
 H          4.0062757260       -2.3350263381        1.4019557904
 O         -1.7951381748       -3.1238271381       -4.6110880999
 H         -1.9733371490       -4.0849567047       -4.6094650958
 H         -1.1365189050       -3.0166672459       -3.8900627357
 O          0.8650281292       -3.0917198400        0.1022071024
 H          1.6860981690       -2.8582190770        0.5487492694
 H          0.9861352125       -3.9853515930       -0.2662992176
 O         -0.1917508543       -3.4242436426       -2.5575312784
 H          0.3167283390       -4.2009679943       -2.8621992415
 H          0.4550333591       -2.7659741187       -2.2297820372
 O          5.1007581113        2.2888575133       -3.1099920813
 H          5.7174705362        1.7422236720       -2.5711615095
 H          4.2125981040        1.9061495536       -2.9224406426
 O         -4.0258543993       -1.6614543987        2.6408416446
 H         -4.0405052109       -0.8130006445        3.1079904753
 H         -4.9562927646       -1.9574017289        2.5526934276
 O          4.0833162460        1.4118364755        0.3988657164
 H          4.8468187594        0.8374573588        0.2363946953
 H          4.3325783400        2.3102777962        0.1321957891
 O          4.0568423081        0.0422575763        2.7220660214
 H          3.1935096287       -0.4388751414        2.7058729493
 H          3.9810618986        0.7505596428        2.0586120883
 O         -2.2581970431        4.8641274204        0.0903490017
 H         -2.8855316803        5.2697097146        0.7134749505
 H         -1.4806317930        4.5411445455        0.5947193913
 O         -5.8185399199        0.9594407912        1.5237682522
 H         -5.7563236046        1.7747193520        1.0035895233
 H         -6.3885950465        1.1803588988        2.2780061401
 O         -1.7397366331       -0.2942610062       -2.7248983380
 H         -1.5779603890        0.1261436373       -3.5882251032
 H         -1.7024651196        0.3895348181       -2.0514833526
 O          4.0535055940       -4.5149694493       -0.3831381519
 H          3.7895140824       -4.7205375491       -1.3017608390
 H          3.5851155075       -3.6993125716       -0.0970282315
 O         -6.7198120052       -1.0328351169       -0.0681050706
 H         -7.6415692411       -0.8124504236       -0.2938861425
 H         -6.3636401938       -0.2864081708        0.4577410769
 O         -7.0155196773        2.1531859342       -1.4228254105
 H         -6.1115438488        1.7967340086       -1.2672152815
 H         -7.3419416223        1.6252577443       -2.1752823660
 O          6.5694739904        0.7231645354       -1.6496778773
 H          7.1970833549        0.1723415930       -2.1492334702
 H          5.8624490915        0.1102720375       -1.3595572252
 O          5.0762978671        4.8339709604       -3.5049216606
 H          4.8985094647        4.7996476810       -4.4639305376
 H          5.1122280328        3.8753932507       -3.2505400072
 O         -4.6873385683        0.9747300545       -1.3081924025
 H         -3.9421321809        1.5858599807       -1.1364742551
 H         -4.5085632006        0.1658437624       -0.7852171765
 O         -5.9772483799       -1.2382549244       -2.6265371735
 H         -5.0648178327       -1.5963543480       -2.7314502604
 H         -6.1625806663       -1.2179383400       -1.6636989201
 O         -3.5423385000       -2.1303746728       -2.8591991231
 H         -2.9280212394       -1.3696180060       -2.7125989027
 H         -3.1729899453       -2.5558194252       -3.6537071592
 O          3.4307250406        1.1347677784        5.1246974527
 H          3.7439283713        0.9120717980        4.2274722581
 H          3.5602693612        2.0933494969        5.2251256519
 O          0.2268526036       -1.8553186629        6.3517516684
 H         -0.7321936848       -1.7235013223        6.3789245055
 H          0.3338277125       -2.6208580770        5.7486796942
 O          1.0470375673       -5.5937389273       -0.7164213186
 H          1.7977701674       -6.1699813882       -0.9126527249
 H          0.3181432516       -5.8982326123       -1.2754844063
 O          6.0097767944       -0.4730354929        0.8595924040
 H          5.4426034972       -0.5912850680        1.6344702177
 H          6.2088442313       -1.3617876479        0.5196885232
 O          1.3884942273        0.5824530701       -7.0972283069
 H          0.8572234562        1.4093055619       -7.0601231880
 H          1.6376709278        0.4371935659       -8.0076688670
 O         -3.8333658839       -4.2201675034        3.5146830987
 H         -2.9887855006       -4.7026683337        3.6552308565
 H         -3.6105266278       -3.3563697131        3.1227169983
 O         -2.3525340357       -3.7311888112       -1.0668946760
 H         -1.4909482150       -3.6753286764       -1.5317391121
 H         -2.9455987501       -3.1561828470       -1.5907680872
 O         -3.1009384252        3.1068476465        5.6568582598
 H         -2.6285513024        3.5209541383        6.3804270661
 H         -2.8130480462        2.1574078678        5.6706405999
 O          1.9502626462       -3.7023045038        2.6048365164
 H          2.8875621933       -3.6191420432        2.7903124280
 H          1.7767311422       -4.6534327424        2.4286765002
 O          4.5015402065       -0.3851487244       -4.1862703765
 H          3.9731152820        0.3146615580       -4.6148996023
 H          5.3750690194       -0.3683427638       -4.6128755782
 O         -4.1671112153        0.8651027022       -3.9093556394
 H         -4.3326548731       -0.0058517678       -4.3085899998
 H         -4.4332495373        0.8089815119       -2.9661049842
 O         -2.5223457566        2.9733134611       -3.6129770866
 H         -3.0283757795        2.2123550215       -3.9406699291
 H         -2.7307574397        3.0037794999       -2.6590846606
 O          1.0639293234        6.0371884879        2.3248838944
 H          1.3386410478        5.6425498739        3.1875772282
 H          0.1373712347        6.3220657121        2.4627753105
 O         -4.6609512831       -5.0824316385       -2.8950724961
 H         -4.6615224192       -4.3300957138       -2.2609690260
 H         -5.0902634960       -5.8014063235       -2.3972887462
 O          3.2567362900        1.6007352703       -5.5153564252
 H          2.6480569211        1.1367369206       -6.1344010379
 H          2.6219434651        2.0972008518       -4.9383814361
 O          1.4583113112        3.0272764130       -4.3021959432
 H          0.8694219205        2.6040148604       -3.6318897215
 H          1.8403445632        3.8021058361       -3.8451971352
 O          5.7925046963       -2.7700567805       -2.7656891135
 H          6.0242446722       -3.6795107024       -2.4959098803
 H          5.6326888902       -2.8052205636       -3.7270547433
 O         -4.9438394189       -1.2320293618       -5.3961334462
 H         -5.1330595670       -2.1902092016       -5.2555848701
 H         -5.7499868399       -0.8265593948       -5.7568586435
 O          6.2944572820       -3.1233439243        0.2234065344
 H          6.6462782062       -3.5941049638        1.0044550133
 H          5.5419989120       -3.6565161609       -0.0926393436
 O          3.2752953190       -2.6693734239       -3.9706727933
 H          2.6183832005       -2.6789989325       -4.6788222379
 H          3.7950011218       -1.8368589337       -4.1069257056
 O          3.5785641735       -5.1010096746       -2.9421161444
 H          2.6600647812       -5.4100013463       -3.0984671267
 H          3.5722153516       -4.1819477011       -3.2861054651
 O          4.8685346352        3.9204171674       -0.2533575240
 H          5.7665214453        3.6973223000       -0.5667649422
 H          4.5949470796        4.7462145944       -0.6751454426
 O         -5.0618851133       -3.4167124127       -0.8823025236
 H         -4.9313625694       -4.0298957816       -0.1344450219
 H         -6.0317658002       -3.3574083231       -1.0065602838
 O          7.3610994763        2.9808240408       -0.4844231360
 H          7.3775412725        2.6635649383        0.4437081734
 H          7.2158461520        2.1579957957       -0.9903690703
 O          6.3737574969        0.1744681357        4.1809327537
 H          6.3414335855        0.9895661562        4.7105844893
 H          5.5763203437        0.1674916246        3.6319853144
 O          4.7640505792       -2.7909878103        2.8600848084
 H          5.7142557799       -2.4991829169        2.8845689054
 H          4.3042004447       -2.3137259832        3.5732404624
 O          3.3428364109       -1.9231736739        4.9735020241
 H          3.0174130864       -2.6256906020        5.5742321746
 H          3.0963680113       -1.0904116640        5.4017174258
 O          0.4514238321       -4.0404340107        4.7673799238
 H          0.7771679209       -3.6459392338        3.9345656975
 H          1.1049506060       -4.7337012330        4.9742307816
 O          7.2314229496       -1.9838316605        2.8735623780
 H          7.6310945319       -1.7597829244        2.0145906893
 H          7.9073140369       -2.4691310393        3.3756990915
 O          8.4638744257       -4.0039789281       -1.0305551807
 H          7.6712572888       -3.5608852461       -0.6559760382
 H          8.2993126370       -4.9465878736       -1.0108850435
 O         -1.0097056177       -6.3193779508        1.3422857052
 H         -1.0572269893       -5.3293511368        1.3279219213
 H         -1.7184276176       -6.5768990879        0.7292298568
 O        -10.1318490280        1.9510603906       -1.6405411215
 H         -9.7882975581        2.3614517259       -2.4636292706
 H        -10.2518352267        2.6660687771       -0.9923204244
 O          1.4812522084       -1.9935691872       -5.9129108839
 H          0.6776365989       -1.7076815099       -6.3746775721
 H          2.2441566869       -1.8217857109       -6.5125962709
 O          0.1898140947        2.9400512869       -6.6987654578
 H          0.4614172222        2.9541628028       -5.7581753366
 H         -0.7750739340        2.9125927588       -6.7271869670
 O          4.9038694367        2.6310186891        3.0820630728
 H          5.7083333950        2.3492056576        2.6020396206
 H          5.1132291464        3.4830319271        3.4968164784
 O         -1.5463702346        6.2688137945        2.5311389690
 H         -2.0371457031        6.7477600254        3.2010884844
 H         -1.7086618793        5.3187593139        2.7262125258
 O         -4.9691831416        3.3519002732        0.4628789645
 H         -4.1482905843        2.9018967101        0.7161821987
 H         -4.8465328309        3.6579842364       -0.4530869909
 O          3.7482663568        3.8096718109        5.7226667385
 H          2.8959994903        4.2020458142        5.4458847325
 H          4.3996865479        4.4018110800        5.3214818733
 O         -4.4574991239        4.4810978273       -1.8737242419
 H         -4.7344972645        4.5012113436       -2.8121008162
 H         -3.7169704697        5.1055027094       -1.7843382325
 O          4.0929204624       -6.5344556728        1.2775416746
 H          4.3866619727       -6.2411786867        2.1609034545
 H          4.0393009817       -5.7144752244        0.7277192014
 O          1.3668790917        6.4244117098       -0.3274417563
 H          0.8741880918        5.7273628506       -0.8285320957
 H          1.3093946830        6.2088841234        0.6164238629
 O          8.6780465725       -1.4290196036        0.6475074297
 H          9.3080482097       -0.9383572046        1.2278816105
 H          8.5321101908       -0.8391310055       -0.1039244239
 O          1.5378816212       -6.3019566317        2.3133696506
 H          2.2848130271       -6.6003607598        1.7717913141
 H          0.7158443157       -6.4073756639        1.8083690813
 O         -1.1012011428        0.7639846855       -5.0681288611
 H         -1.0402330586       -0.0160761220       -5.6586504288
 H         -1.6452431381        1.4181212052       -5.5437578928
 O         -7.6990119161       -2.8003187106       -3.8702472022
 H         -7.2301176261       -3.3542838640       -4.5051592094
 H         -7.0012992346       -2.2157636315       -3.4828625132
 O         -7.4080782584        0.6760206595       -3.6027154912
 H         -8.2427880200        0.1559115216       -3.6319135278
 H         -6.7350295161        0.0330313824       -3.2649008088
 O         -9.2167697289       -0.5115258478       -0.9779043559
 H         -9.9841533490       -1.0119238551       -0.6378099163
 H         -9.5108060719        0.4177509026       -1.0276976170
 O         -0.2187517660        4.8621677808       -1.7586771152
 H         -1.0863426808        5.0864084231       -1.3946616848
 H         -0.1590118409        5.2307474975       -2.6663742496
 O         -7.6676503854       -3.5225344939       -1.2824300994
 H         -8.2882398400       -3.0721205844       -0.6822186338
 H         -7.9064914292       -3.3258039609       -2.2053577261
 O         -5.1161163537       -5.0108701490        1.2448280307
 H         -4.4595206980       -5.0138197555        1.9561064899
 H         -5.7887194185       -4.3650949344        1.5386325171
 O          7.5118728291       -4.7077908521        2.0240935648
 H          7.3300444174       -4.6241676090        2.9782156311
 H          8.4487323966       -4.4706560273        1.8924707265
 O          6.2633368058       -5.3849090532       -2.3824593409
 H          6.3816562373       -5.7842494550       -1.4949295658
 H          5.3524188413       -5.5671551267       -2.6472428972
 O          6.6077327553       -6.3827843326        0.0811756612
 H          7.0322359531       -5.8570981972        0.7823644917
 H          5.7772820801       -6.6870445329        0.4763778172
 O          9.9718327699       -3.6611117747        1.3707520400
 H         10.3833232241       -4.1411738422        0.6327530169
 H          9.4453279269       -2.9504459483        0.9449311397
 O         -2.4416834702       -5.7035414885       -4.2857855909
 H         -1.8681866371       -6.2703214403       -3.7542655003
 H         -3.2469903453       -5.5500545058       -3.7491978543
 O          1.0749756009       -5.5311288584       -3.5990229701
 H          1.0778713770       -5.3020288528       -4.5680584176
 H          0.4264699564       -6.2294757045       -3.4494956974
 O         -5.4816840941       -3.7995492905       -5.1258494054
 H         -4.8631132843       -4.1230077962       -5.8071557491
 H         -5.2266940410       -4.2752335498       -4.3095921334
 O         -7.3803833264        4.5446938301       -2.5398338541
 H         -7.0842460749        3.7103354280       -2.1087322378
 H         -6.7121260909        4.7896177909       -3.1952878879
 O         -2.6669939029        5.5438067364       -4.4450902163
 H         -2.5713695244        4.5983904955       -4.2062299930
 H         -2.7203493193        6.0376252752       -3.6104404605
 O          7.5946139850        4.9859060259       -2.6082843501
 H          6.7433157663        5.0341974243       -3.0853870437
 H          7.7187727266        4.0603914882       -2.3729969198
 O          6.7784602715        2.3628045249       -5.1697235653
 H          7.5669731852        2.4838684968       -4.6164264998
 H          6.0395165000        2.3332278467       -4.5254521489
 O         -6.5286785756       -0.9311239234        3.9988783597
 H         -7.1566402900       -0.7457721512        4.7273266901
 H         -5.8905911399       -0.1898351292        3.9370124357
 O         -5.0607653854        3.2940028105        3.2801289183
 H         -5.4241316722        3.5928121343        4.1413578805
 H         -4.2340312322        3.7733025505        3.1684565816
 O         -4.4864852475        0.7406624996        3.9749671037
 H         -4.3307355272        0.6648507915        4.9283823165
 H         -4.6762075785        1.6739375943        3.7533274049
 O         -6.3957945036       -2.7950837918        1.9843049848
 H         -7.0923299466       -2.6984294758        2.6491459014
 H         -6.6006676568       -2.2101710663        1.2244779370
 O         -2.8222560061       -6.3029104890       -0.6773175240
 H         -3.7298275983       -6.5930686565       -0.8190255242
 H         -2.7877470332       -5.3266032035       -0.8231485414
 O          7.8548864877       -1.1454950393       -3.0250274772
 H          8.6709304026       -1.6806219376       -3.0229140647
 H          7.1206637018       -1.7742661756       -2.8397522112
 O         -5.1400247593        2.5036369821       -5.7275219712
 H         -5.8100127273        1.9800150988       -6.1924136535
 H         -4.8358230734        1.9143371638       -4.9972928873
 O         -8.3909823917       -0.6554612734        2.0354741456
 H         -7.7027142866       -0.7171934073        2.7199466952
 H         -8.3442475814        0.2334091796        1.6472999194
 O         -7.4576877436        1.6287735111        3.7424800815
 H         -7.7184769035        2.5630441026        3.8489332519
 H         -8.3104588849        1.1469709591        3.7492477123
 O         -7.2629896670        4.0828958507        1.7693054581
 H         -6.3715563332        3.7969466911        2.0326216691
 H         -7.7175013356        3.2587311762        1.4751303178
 O         -2.3277135722       -2.2889370986        5.6649987753
 H         -3.2758069390       -2.1315017465        5.5282350867
 H         -2.2908061627       -3.2093318430        5.9977145070
 O          9.2390976962        0.7105071500       -0.9299737172
 H          9.4719557915        1.3438351480       -0.2237253554
 H          8.9968733134        1.2262029574       -1.7193541898
 O         -1.5972969788       -5.5770826133        3.9345690262
 H         -1.3589887327       -6.0392975957        3.1142351338
 H         -0.8446131495       -4.9943690221        4.1713349032
 O         -8.3243635429        1.8241059874        0.8651156274
 H         -7.9425451319        1.9178286883       -0.0330213139
 H         -9.2864767299        1.7355204665        0.7770590933
 O          7.1387660876        1.7854287800        1.8752164797
 H          7.7260002186        1.7687650198        2.6548656016
 H          6.9707354231        0.8721469956        1.5832754749
 O         -8.2213583453        5.6179885977       -0.2118664231
 H         -7.7316735836        5.1184150391        0.4724121596
 H         -7.9490222808        5.2678791219       -1.0814303076
 O          6.6730560316        4.9310688842        1.6556447023
 H          5.9562932032        4.3821672728        1.3013203650
 H          6.8398712149        5.5925076469        0.9514329788
 O          5.3458532392        5.1960649837        3.9755790887
 H          6.1399865787        5.2539902324        3.4227798509
 H          4.6670883930        5.6335842660        3.4374287794
 O        -10.3243887669        4.0418879525        0.1759116960
 H         -9.5911516323        4.6932186445        0.0285206401
 H        -11.1441710896        4.5078135764        0.0147395803
 O         -4.3855504843        5.7037235182        1.5788336399
 H         -4.7868949090        6.3276589022        0.9477468663
 H         -4.7281230792        4.8280596101        1.2897531177
 O        -10.9276097664        1.1218178308        1.0080783857
 H        -11.0721026380        1.7659733593        1.7101043505
 H        -11.4379982687        0.3247020631        1.2529104334
 O          3.9984874013        6.5302512384       -0.9016648544
 H          4.0636704091        6.9272572133       -1.7738314860
 H          3.0290411485        6.4847728935       -0.7321685458
 O         -2.8926013289        6.7030611579       -1.9308722236
 H         -2.2419111599        7.0071993843       -1.2593320075
 H         -3.6886474049        7.2103633817       -1.7508824207
 O         -0.8801014397       -6.9719211219       -2.3302155476
 H         -0.4807154620       -7.7300739111       -1.8648982676
 H         -1.6543513860       -6.7464397142       -1.7647667523
 O          6.9670496007       -0.2713992814       -5.3560899380
 H          7.0099449513        0.7128688737       -5.3639685118
 H          7.4419052907       -0.5412147290       -4.5389717967
 O          8.5523025650        2.2660082981        4.1639399325
 H          7.8784686781        2.4675619705        4.8307503060
 H          8.9063648087        3.1062357343        3.8472781840
 O         10.3094633717       -0.1449342090        2.2516167502
 H         10.1758322135        0.7809297349        1.9494964775
 H          9.9106286587       -0.2164913486        3.1463186326
 O          6.8673082123        6.4655505023       -0.5032050442
 H          5.9540930205        6.7280753969       -0.6525293266
 H          7.1432710991        5.9722202751       -1.3085530060
 O          6.3790788770        2.3201407012        5.8919098455
 H          6.1177272165        1.6314494533        6.5441244040
 H          5.6556504889        2.9526018187        5.8957181198
 O          2.4419191099       -5.8613765706        4.9060686305
 H          3.3213331965       -5.6661304890        4.5237060419
 H          2.0011764759       -6.3804492102        4.2201494072
 O          9.0477772291       -0.3708286038        4.5575426892
 H          9.1556538969        0.5413137238        4.8522373769
 H          8.1125656079       -0.4199837506        4.2853004718
 O          7.0396436389       -4.3340991349        4.7169194395
 H          6.6321604087       -3.5286922776        5.1089883500
 H          7.9824787505       -4.2280133913        4.8801927852
 O          4.7543899520       -5.3255296499        3.6101520319
 H          4.7933762396       -4.3904900342        3.2970395606
 H          5.5476817660       -5.4204581082        4.1504528603
 O          2.9566033260       -7.5472722390       -0.9621706140
 H          3.4799376694       -7.4428865753       -0.1532321546
 H          3.5657728800       -7.6476993594       -1.6932073312
 O          9.4223053862       -3.1006915494        4.0589823650
 H          9.6592318483       -2.2316340766        4.4056102334
 H          9.9301571365       -3.2550599077        3.2514093723
 O          9.9986418809        2.2172133454        1.1350145468
 H         10.9707921486        2.3301812105        1.0329916672
 H          9.6750595733        2.9811844144        1.6472477027
 O         -5.3049695754        4.7900114094       -4.3752476358
 H         -4.5151907992        5.2753691762       -4.6689990630
 H         -5.3388888953        3.9884560797       -4.9371892415
 O          5.9347878275       -2.8480559513       -5.5050041660
 H          6.6960304985       -3.4285241708       -5.3027484721
 H          6.3225994479       -1.9777413026       -5.6802081162
 O         -5.6188199998       -6.6466754731       -0.8930499001
 H         -5.4880029533       -6.1897904347       -0.0445617216
 H         -6.5892676184       -6.7078345143       -0.9719734853
 O          9.3946581315        4.7810134809       -0.2409919660
 H          9.0291555295        5.6162063140       -0.5399150133
 H          8.6573782048        4.1376775127       -0.2784137314
 O         -5.6038696099        6.6997692708       -0.6167277653
 H         -5.4123635622        5.8762298577       -1.1009224610
 H         -6.5600577867        6.7153512652       -0.4848872628
 O        -11.5880774744       -1.7443233506       -0.8098705227
 H        -11.8846382729       -1.1471557854       -1.5280398084
 H        -11.5018406033       -2.6372447985       -1.1663934878
 O         -9.9104387742        0.5460368868        4.0220640969
 H        -10.1741040682       -0.2397902682        3.5031972783
 H        -10.3981221473        1.3115932053        3.6956331293
 O          5.9641543502       -2.0319985154        5.6524720792
 H          5.0054746584       -2.1057738431        5.4889835243
 H          6.2716890393       -1.3222150156        5.0502226824
 O         -9.5449442954       -0.9210931610       -3.5821879898
 H         -9.0751313241       -1.7324272769       -3.8470723870
 H         -9.4715799338       -0.8858909287       -2.5980772298
 O         -9.0474615789        2.9277763191       -3.8809560706
 H         -8.6070596636        3.7239703799       -3.5270215647
 H         -8.3384617423        2.2825950231       -4.0064647785
 O         -9.2065363968       -2.8519874339        0.8576756654
 H         -8.8172331351       -3.6056472599        1.3411589124
 H         -8.8258620176       -2.0260066664        1.2364022573
 O         -6.9090064217        0.4745652147       -6.2092469071
 H         -7.8163476318        0.4937475426       -6.5429013002
 H         -7.0328465029        0.6141924801       -5.2440959075
 O          5.2090976151        0.2774666432        7.1062487657
 H          5.5943994447       -0.5681473732        6.8321899662
 H          4.4613043753        0.4523224368        6.5063808273
 O         -5.0087607860       -2.5881182887        5.4153906197
 H         -4.6888568044       -3.3023899667        4.8422637886
 H         -5.6195354547       -2.0600990660        4.8570115449
 O        -11.9507945218        0.1883405111       -2.6448097591
 H        -11.3581057689        0.8822354172       -2.2898897410
 H        -11.4753262599       -0.2018554971       -3.3853034471
 O          0.0125044336        5.9184401363       -4.1990120562
 H          0.6376702968        5.6388592062       -4.8984506978
 H         -0.8842228749        5.8871527061       -4.5756862245
 O          9.9408876167       -2.8062819648       -2.8233231793
 H         10.5037460716       -2.1408695622       -2.3707011516
 H          9.4226185012       -3.2485262257       -2.1123039464
 O         -2.5943915303        2.2507090313       -6.7106762772
 H         -3.4464680511        2.6051173229       -6.4040356735
 H         -2.8187142537        1.3993032806       -7.1234743329
 O          0.2824257459       -8.3793557188       -0.3734344739
 H          1.2270313561       -8.2149521796       -0.4804743679
 H         -0.0406644189       -7.7902597543        0.3196029495
 O          7.9282059180       -4.2442272293       -4.3832493219
 H          8.7244191189       -3.8580225279       -4.0039680426
 H          7.5246361057       -4.7950699340       -3.6977116560
 O         -4.4851530100       -0.0629822826        6.5870939301
 H         -4.7229936470       -0.9965584905        6.5148855285
 H         -3.5167437740       -0.0140487044        6.5932565634
 O          8.7384477149        2.0523789156       -3.2688661272
 H          9.4218246074        2.7047485934       -3.0236283146
 H          9.2248163883        1.3380689843       -3.7209603684
 O         11.2380789635       -0.8314643149       -1.5764781847
 H         11.6142039486       -1.1657870706       -0.7308850825
 H         10.4557739014       -0.2830296829       -1.3021296453
 O         -1.1964645885        7.5273607573       -0.0225868390
 H         -0.2588108199        7.3180727030       -0.1438297876
 H         -1.4554975259        7.1351623561        0.8239396881
 O          3.7555983684       -1.7427621602       -7.1778786127
 H          4.1808122516       -0.8826978613       -7.3675865995
 H          4.4218501096       -2.2817668481       -6.7401862237
 O          2.4274205360       -0.4835865308        7.1607082343
 H          2.9875696932       -0.8361111889        7.8523364787
 H          1.6127543878       -1.0107113927        7.1293455407
 O          4.4535111639        3.9941806862       -5.9853537981
 H          5.3318586022        3.7683360774       -6.3031658080
 H          4.0070559531        3.1349152842       -5.8371244823
 O         11.9883918739       -1.6934720140        0.8395202276
 H         11.5463301339       -2.5192283743        1.0841165341
 H         11.5690894850       -1.0235637926        1.4087963099
 O         -8.4249776651       -2.8972220858        4.1088252119
 H         -9.2885130683       -2.6509877455        3.7505183619
 H         -8.3551819592       -2.4035014561        4.9323872794
 O         -8.3408794664       -0.5954534988        5.9213348445
 H         -9.0846369664       -0.2084837593        5.4301913286
 H         -7.9568620564        0.1307482932        6.4355491270
 O        -10.4818015362        3.1204466240        2.8585950647
 H         -9.8826195167        3.5475625750        3.4833919928
 H        -10.3469977502        3.5722376385        2.0095264111
 O          2.5591291032        4.8550809429       -2.7008965981
 H          2.2331442525        5.7702976371       -2.8045802405
 H          3.5017534085        4.8856801713       -2.9639253950
 O         -6.6806447829        1.5868734110        6.3099405558
 H         -5.9037331692        1.0410763701        6.5044543595
 H         -6.8655653052        1.5181833126        5.3451535145
 O          1.9575550205        2.2437017384        7.4499311971
 H          2.2039122369        1.3080096447        7.3564116875
 H          2.7077379287        2.7621509055        7.1428590028
 O         -3.6701189304        5.7616768109        4.2230603774
 H         -4.4281659845        5.7684798612        4.8085863195
 H         -4.0104852136        5.8597012174        3.3140755113
 O         10.6654771605        3.5697861712       -2.2223868811
 H         11.0810090070        4.2588548390       -2.7374453725
 H         10.2966250439        4.0064364399       -1.4149709780
 O          3.7489363024        6.0950369239        1.9207526665
 H          2.9194085818        6.5601970638        2.0771335253
 H          4.0776542027        6.3653693820        1.0557667640
 O         10.3339216631        0.0674859020       -4.1828373845
 H         10.1482364768       -0.6908344677       -4.7374616092
 H         10.8641748096       -0.2490506814       -3.4417775103
 O        -10.5688837457       -4.2675436948       -1.1404224738
 H        -10.1851141111       -3.8852851626       -0.3391265029
 H        -10.1214494082       -5.1102737953       -1.2682501592
 O         -5.6955770529        4.0104226703        5.7475179207
 H         -4.7568787440        3.8114829686        5.9077088448
 H         -6.1719362080        3.2414683526        6.1288400568
 O        -10.8179947928       -1.8550770105        2.9368492430
 H        -11.7274579608       -1.5966322831        2.7435047752
 H        -10.4647417264       -2.1783346454        2.0913989036
 O         -8.3727625276       -5.1812589390        1.9846768338
 H         -7.6318093510       -5.2070223816        2.6346333086
 H         -9.1386735174       -5.5050736671        2.4576417118
 O         12.5733460421        1.6010740329       -1.7133181216
 H         12.1946107500        0.7088360969       -1.7732329305
 H         11.8825014059        2.2267443247       -1.9821751157
 O          1.3197533576       -4.7193804987       -6.0449171812
 H          2.2686299617       -4.8925125122       -6.1746068041
 H          1.2323461484       -3.7493326175       -6.0545532451
 O          1.7793383583        5.1975524536       -6.1071165256
 H          2.7073593804        4.9406803679       -6.0728269066
 H          1.3190530082        4.5003320023       -6.5942392831
 O         -8.2300910608        4.1883113804        4.1898842619
 H         -7.8846140149        4.4175331604        3.2958140700
 H         -7.6023686675        4.5138626463        4.8391886414
 O         -0.9344768786        5.2287201185        5.6020612728
 H         -0.8212019039        4.2776645450        5.7978168204
 H         -1.7861873119        5.3449451354        5.1680463767
 O          9.1330895143        4.3816088007        2.5241493170
 H          9.6736496653        4.9704436414        1.9913392847
 H          8.2106104279        4.5258681672        2.2212909772
 O         -6.5867966414       -5.0435556397        3.9498848418
 H         -7.0580187748       -4.2711289267        4.2900831443
 H         -5.6690702952       -4.7892300231        3.7912030094
 O         -1.0840326026       -1.4703608889       -6.5589606538
 H         -1.8752589975       -1.1826711073       -7.0379979330
 H         -1.3780712719       -2.0977278334       -5.8623586206
 O         -9.5905413479        0.8073942952       -5.8005418029
 H         -9.7576305039        1.6552011961       -5.3766079308
 H         -9.7714739300        0.1286217436       -5.1383838145
 O          5.0724801802        0.5901146103       -7.3679702278
 H          5.9383904701        0.3784603124       -7.0092964389
 H          4.6213965533        1.1302029592       -6.7057595644
 O         -8.2484483010       -6.0634273447       -0.6699942959
 H         -7.9966104459       -5.1735683665       -0.9916519824
 H         -8.2921917810       -5.9639158557        0.2923664359
 O        -12.7871898522       -0.7957936895        1.3780080761
 H        -12.4660247200       -1.3230626998        0.6205515530
 H        -13.3747754658       -0.1346565675        0.9785602373
 O         -3.4116631277       -0.3186630017       -7.3137147891
 H         -3.9101161672       -0.6705395434       -6.5325610688
 H         -4.0199221465       -0.3757575014       -8.0473169959
 O         12.6110259024        2.0970183648        0.8852706390
 H         12.9846279349        1.3213772552        1.3051884628
 H         12.7292918104        1.9666155665       -0.0861676330
 O        -13.3290989423        1.2726875936       -0.3760161807
 H        -12.4197741683        1.4778393041       -0.1077606537
 H        -13.2634685820        0.9289588980       -1.2715191923
 O          4.0365077018       -4.9787644403       -5.7756828591
 H          4.6753987348       -4.2579804816       -5.8172167095
 H          4.0621611294       -5.3106398066       -4.8711723727
 O         -2.6604750213       -4.8456120378        6.3417316161
 H         -2.2757089422       -5.3610352179        5.6175555565
 H         -3.6121187523       -4.9399439212        6.2724997424
 O          1.8240317041        7.4254078311       -2.8892876714
 H          1.4147295349        7.6739411909       -2.0564026595
 H          1.1004056397        7.1947587604       -3.4962193720
 O          2.5810991786       -3.7372154438        6.7637240090
 H          1.6741280123       -3.6109579218        7.0544232014
 H          2.6369736200       -4.6210500204        6.3789022533
 O         11.5044930008       -4.2238133701       -0.8170035440
 H         12.2379561989       -3.6140306716       -0.7095695907
 H         11.1413276322       -4.0736936762       -1.6974540163
 O         -3.3749586970       -4.5529526568       -6.6227749805
 H         -2.6655276860       -3.9241996656       -6.7697151731
 H         -3.0305593565       -5.2050504340       -5.9948832312
