  211

 H         -0.0000000000       -0.0000000000        0.0000000000
 O         -1.3293795344       -1.2481393098       -2.5413485727
 H         -0.8957951406       -0.6264619295       -3.1956954080
 H         -0.8345576369       -2.0883840955       -2.6048924168
 O         -0.8529754262       -0.5577482984       -0.1663011443
 H         -0.9873661075       -0.7842431033       -1.1623379153
 H         -1.6613082936        0.0007600961        0.0952126794
 O         -2.9726618681        0.7379046276        0.4229975302
 H         -3.1787181780        1.5774674221       -0.0321542354
 H         -3.7671850452        0.1982663015        0.3809074756
 O          3.0462300726       -1.6771306035        0.6317679718
 H          2.2065855804       -1.9133555636        1.0653098375
 H          3.6040662279       -2.4691566133        0.5749174283
 O          1.7588219489       -1.3607777616       -1.7434518649
 H          2.2808447778       -1.5110712632       -0.9257957911
 H          2.3927674787       -1.3021062860       -2.4849449096
 O          1.2230897564        0.7251359310        0.4143511607
 H          2.0204510569        0.4305800394       -0.0712852866
 H          1.2651140355        1.7125566123        0.3786954874
 O         -1.3410111068       -3.1246439358        0.6873082068
 H         -0.5200155340       -2.6392386885        0.9328463980
 H         -1.7861607848       -3.3384263693        1.5384714094
 O         -4.6158642017       -1.7716940118        2.2087946013
 H         -4.2960770019       -0.9035959664        2.5512119018
 H         -5.5330965982       -1.8466431475        2.4691333477
 O         -1.1022901538        1.7677204856       -1.4202307047
 H         -1.7901486700        1.8076510102       -2.1063253566
 H         -0.2401655300        1.8078987633       -1.8576876272
 O          1.3714486387        1.3260923752       -2.4100010493
 H          1.5526150483        0.4223320181       -2.1010077504
 H          2.1914052307        1.6443491353       -2.8346564881
 O         -4.5245457611       -0.4415133259       -2.1427337909
 H         -4.5016659441       -0.8929784283       -3.0017986323
 H         -4.0464492656       -1.0493226153       -1.5376419831
 O          0.2546221767       -3.3952531820       -2.4520131519
 H          0.1294657229       -4.0760973713       -1.7700403511
 H          0.8609915810       -2.7131002833       -2.0641918181
 O          1.9257612057       -4.1904706894       -0.0389284592
 H          1.2442399751       -4.8500561226       -0.1797234270
 H          2.2483754875       -4.2949438016        0.8783994678
 O          0.6781172974       -1.9883353730        1.8671849947
 H          0.6327837494       -2.6320694056        2.5952434838
 H          0.1409935012       -1.2154443856        2.1124013108
 O         -0.9127655587        2.9463757000        0.9474052332
 H         -1.6596054951        2.7731385321        1.5332679969
 H         -1.0012141351        2.3746841772        0.1579720323
 O          2.1291867623        0.4040952384        2.8476928734
 H          1.6538087719        0.4893688299        1.9908409804
 H          2.1904698851        1.2863411010        3.2527214611
 O         -0.1437508687        1.9766209562        3.9146931303
 H          0.3980904693        1.6886118155        4.6735210842
 H          0.2749155048        2.7643907776        3.4967538217
 O         -0.6384509402       -5.2176687486       -0.6155337506
 H         -1.4630357302       -5.5074130992       -1.0332043671
 H         -0.9280690590       -4.3924550605       -0.1183414944
 O          3.6330430557        0.5046437259       -0.7257044143
 H          4.1559139560       -0.1513611479       -1.2368013418
 H          4.0096690611        0.4532852562        0.1805193932
 O          1.9021563337        3.2186769022        0.3858994438
 H          1.3842391297        3.6733578931       -0.3121384722
 H          2.8276614141        3.2703449613        0.1090508185
 O         -1.1176740905       -0.0483738551        2.5415269898
 H         -0.7019928255        0.7380210292        2.9528204335
 H         -2.0542813919        0.1813207650        2.4076656195
 O          4.3735924484        2.9555365032       -1.0814750932
 H          4.0236965523        2.0305327238       -0.9754899871
 H          5.3089500979        2.8631114596       -0.8685159282
 O         -3.3051487137        1.7953343161       -3.0191714388
 H         -3.7741822536        1.0160497617       -2.6556807242
 H         -3.1212143551        1.5332355735       -3.9577794884
 O          2.8751202543       -4.3950726282        2.4977855184
 H          3.3575309217       -3.6288253723        2.8514090013
 H          2.0565328693       -4.4351133304        3.0132647517
 O          3.9278771406       -1.9851863679        3.3078480409
 H          4.1320479901       -1.2324734690        3.8841223389
 H          3.7462516956       -1.6057945242        2.4333901236
 O          0.6907836719        4.3563166160       -1.6836065781
 H          0.5488550001        3.8480133321       -2.5035041375
 H         -0.1706706396        4.7018308845       -1.4162851826
 O         -0.2383044243        0.3181025291       -4.2504559084
 H          0.3813587532       -0.1516583382       -4.8499312789
 H          0.3256998187        0.9065047750       -3.7035280333
 O          3.4412780600       -0.6700720386       -3.7616280495
 H          3.5586573545        0.2960673432       -3.8132368570
 H          4.2955205986       -1.0307219258       -3.5053064498
 O         -3.7981135645        3.0815379263       -0.6815974519
 H         -3.1483986208        3.8071975313       -0.6467065484
 H         -3.8378962199        2.7859141185       -1.6031057153
 O         -1.7905316801        4.9192937184       -0.4932437720
 H         -1.3662794453        4.2421734354        0.1183689550
 H         -1.9966590971        5.6734860079        0.0606800572
 O         -1.1844982022       -1.7596307209        4.5710547393
 H         -0.2291664504       -1.8331191626        4.7343877770
 H         -1.2496311156       -1.0880157357        3.8507206149
 O          1.5130538464       -1.4657091138        4.6368633866
 H          1.7004972054       -0.8450085461        3.8930649691
 H          2.3013763394       -2.0136370182        4.6938629380
 O          3.8029749428       -3.6986713363       -1.9484926835
 H          3.4180646133       -3.6752034250       -2.8404273341
 H          3.0562675164       -3.8533364655       -1.3385891498
 O          0.1807720472        3.3147368715       -4.0892725295
 H         -0.7007972082        3.7165126881       -4.1639823693
 H          0.3353863389        2.7455466424       -4.8632152104
 O          2.7246321947        4.2886179459       -4.5176596807
 H          1.7670922785        4.1331612897       -4.4396529242
 H          2.9678142720        4.8753864561       -3.7814774246
 O         -3.5698565127       -2.1405101263       -0.3304474921
 H         -2.6525164935       -2.3489992718       -0.0546364943
 H         -4.0717806161       -2.0593292807        0.4957944473
 O         -2.6231257508       -3.4268660535        3.0001593300
 H         -2.1333093366       -2.9187517350        3.6770887140
 H         -3.4097498500       -2.8888542925        2.7978394804
 O         -5.2558556404        2.3393373075        1.4909803645
 H         -5.7540670356        1.5838991768        1.1438935189
 H         -4.8755956712        2.7470089108        0.6945221998
 O          3.6795473149        2.0367196640       -3.6134452130
 H          4.1896835436        2.3731623887       -2.8619616280
 H          3.3743748400        2.8471122522       -4.0967584671
 O          5.2024711313       -1.3765252244       -1.7741531317
 H          5.7304917527       -1.3947504461       -0.9518188060
 H          4.7555110430       -2.2455003043       -1.8150960444
 O          0.9949255229        4.0703915860        2.7971073956
 H          0.2406926807        4.6527274213        2.6310597490
 H          1.2991882292        3.7980159721        1.9051223427
 O         -2.6906544905        0.7312398174       -5.3295585003
 H         -1.7390657107        0.6569223269       -5.1355467339
 H         -3.0639062662       -0.1519478670       -5.1979683735
 O          3.0543597314        2.7231703509        3.9296893036
 H          3.7141463293        2.9985276458        3.2635378711
 H          2.3559956408        3.3881123375        3.8524485445
 O          1.5769573574       -0.9459688703       -5.7304184481
 H          2.3051754422       -1.0923122947       -5.1006260071
 H          1.0787066563       -1.7720635136       -5.7777258905
 O         -3.7460695175        0.5803627287        3.0200021062
 H         -3.4415749343        1.0409729641        3.8337810381
 H         -4.2669912127        1.2297315751        2.5146959286
 O         -5.9479118007        0.0513785758        0.1096088137
 H         -5.5987033054       -0.0176431839       -0.7982811806
 H         -6.8014656878       -0.3792854366        0.0989075781
 O         -2.6101392707        2.0419822940        4.9228718718
 H         -2.4988365524        1.4577564619        5.6997755917
 H         -1.6967161555        2.0958009754        4.5659957297
 O         -1.5822116711        0.1793652537        6.5263032390
 H         -0.6638532414        0.4659067840        6.5984578916
 H         -1.5718268277       -0.6130272357        5.9633186893
 O         -3.0337491802        3.5971688621        2.6968355100
 H         -2.9978944391        3.2345151207        3.5946570215
 H         -3.9183580384        3.4021078551        2.3638709794
 O         -3.3117767986       -4.8055939488       -1.2002205709
 H         -3.4425413524       -5.2516989538       -0.3460419504
 H         -3.5408107680       -3.8776789570       -1.0263573511
 O         -3.3834070307       -1.7650934832       -4.2311070594
 H         -2.6640081497       -1.5709414747       -3.5929932006
 H         -3.3571385243       -2.7245631376       -4.3262994044
 O          0.3108404720       -4.1666822934        3.4863158989
 H         -0.2530293601       -4.1172480285        4.2596847970
 H         -0.0476454375       -4.8806694320        2.9189819036
 O          4.5588751357        0.6521774822        1.7682013715
 H          3.7153143160        0.4919941747        2.2466353320
 H          4.7017672498        1.6113531839        1.7696209660
 O         -3.1332215654       -5.6802154449        1.4104846261
 H         -2.3651172164       -6.2086990475        1.6472119958
 H         -3.1597543451       -4.9710977746        2.0657172623
 O         -1.3248194841        5.6391017000        2.3122178017
 H         -1.4229739708        6.1712915580        3.1012527777
 H         -1.9574981904        4.8945270400        2.4076392027
 O          4.7165809634        3.3984296890        1.8993683444
 H          5.6313994274        3.6599745708        1.9958015299
 H          4.2648210381        4.1753928778        1.4718396721
 O         -0.3217283618       -6.2095622696        1.8410480420
 H         -0.4143998547       -5.9493709171        0.8960838795
 H          0.4225203381       -6.8080563346        1.8964969011
 O          3.6178947421        5.5137782563        0.7982801721
 H          2.6839095157        5.6951097717        0.9840653794
 H          3.7017069988        5.6270858369       -0.1631292981
 O          1.1946956533        0.8510010790        5.9833483554
 H          1.3623405683       -0.0500820942        5.6362998164
 H          2.0402089454        1.1855419975        6.2838900014
 O          3.2283470605        5.2796549675       -1.9634091128
 H          3.6988250362        4.4539001996       -1.7641285851
 H          2.2844440156        5.0892974128       -1.8156968494
 O         -2.2128320484        4.3832485120       -3.3925187799
 H         -2.7706223695        3.5960144356       -3.3923696045
 H         -2.1582810789        4.6938958161       -2.4827362581
 O         -2.1830746975       -4.2411117900       -3.6840702639
 H         -2.7497586958       -4.6043851989       -2.9888501298
 H         -1.3302608213       -4.0867423552       -3.2580235835
 O          6.2701298026       -1.2328212299        0.7200730137
 H          5.6771598373       -0.6670456557        1.2411937677
 H          6.0350493583       -2.1428969690        0.9417200374
 O          6.5266466851        1.2641538389       -0.7763514302
 H          6.5428055555        0.8052295616       -1.6190027374
 H          6.7071009350        0.5887158137       -0.1138996285
 O          0.9173330981        6.0971080889        0.6141525406
 H          0.1090417135        6.0708412319        1.1399964721
 H          0.7953603432        6.7324379148       -0.0907888678
 O          4.2721739999        0.3528854756        4.8159272595
 H          5.2058435317        0.5251165612        4.6946439443
 H          3.8163146255        1.1834463689        4.6101372383
 O          1.3424827164        1.8732229878       -6.0725947081
 H          2.1756897364        2.3429204581       -6.1357584608
 H          1.5290709159        0.9329102268       -6.1900782594
 O         -0.6036092531       -2.6699402560       -5.5120710209
 H         -1.1568556932       -3.3476376886       -5.1067601583
 H         -1.1961452684       -2.1078371755       -6.0151777099
 O          2.3111584495       -3.4784402816       -4.2551145382
 H          2.2334162980       -3.9867298596       -5.0608257627
 H          1.4407589398       -3.4973528275       -3.8206465669
 O          4.9381933597       -3.7045883086        0.6016484138
 H          4.6018379808       -4.3871119194        1.1884357882
 H          4.8610569671       -4.0262216472       -0.3052091822
