  251

 H          0.4630927075        1.1941025328        0.8323452959
 C          0.5529035759        0.5095402430       -0.0251092077
 H          0.4633421182        1.0989800593       -0.9466436095
 C         -0.5779259330       -0.5149488604        0.0205351874
 H         -0.4518492550       -1.1270258239        0.9278134325
 H         -0.4840892692       -1.1748678657       -0.8448928483
 N         -1.8603253886        0.1647702476       -0.0623309412
 H         -2.6131021663       -0.5138473281       -0.0751527665
 H         -1.9956541840        0.7570092260        0.7508171934
 O          1.7808081027       -0.1833448060        0.0209869109
 H          2.5006908393        0.4507195084       -0.0567171279
 O         -1.7325937746        1.6631052478       -2.2181854512
 H         -1.3601861287        1.0597582494       -2.8807340804
 H         -1.8355837491        1.1125650925       -1.3856147120
 O          3.5014337152       -0.8154908425       -2.3721530557
 H          3.8059959702       -1.2936651805       -1.5929684710
 H          2.8831943006       -1.3800744885       -2.8650211848
 O          2.6755311113        1.7242626482       -2.1417299082
 H          2.9584858400        0.7893641747       -2.1635096888
 H          2.0310786987        1.8126119237       -2.8715629272
 O         -3.9420523246        3.1210941448       -2.2809188044
 H         -3.0944703278        2.6333903530       -2.3810157030
 H         -3.7961526923        3.7128969076       -1.5149139498
 O         -4.5829341021        1.1973760146       -0.5790999953
 H         -4.4976285237        1.9610081081       -1.1944363317
 H         -4.2098406883        1.4615264230        0.2702740458
 O          4.1764413469        1.1231490221        0.1494645758
 H          4.6483209743        0.3034251836       -0.0810148036
 H          4.7219096867        1.8774144620       -0.1591760629
 O         -3.2569966467       -0.0147443042       -4.7198328889
 H         -3.4387250178       -0.2862009477       -3.8010898149
 H         -3.7936867192        0.7943108655       -4.8490862230
 O          1.9629112181        3.1423879648        0.0799267876
 H          2.3839447516        2.5841657487       -0.5986480756
 H          1.1099400449        3.4054593630       -0.3303093826
 O          1.5841338253       -2.6183719273       -0.9128012750
 H          2.3911235717       -3.1219481703       -0.6711932139
 H          1.6861342750       -1.7256895444       -0.5201263253
 O          1.1631545679        1.5930699184       -4.3351905896
 H          1.9647114721        1.2004947003       -4.7322439602
 H          0.5159303443        0.8803620779       -4.2435959387
 O         -0.1575642270        3.6536183643       -1.3789383929
 H         -0.7840630516        2.9341524582       -1.5977858531
 H          0.2024709833        3.9503896474       -2.2471069381
 O         -4.0071976597       -0.7930886921       -2.2165762263
 H         -4.2997105821       -1.6065739639       -1.7671817937
 H         -4.0399012716       -0.0717425099       -1.5599048571
 O          3.0986119686       -2.0856277336        1.6775729110
 H          2.4986568845       -1.3240151050        1.8028206389
 H          2.7344961068       -2.8166009485        2.2087191746
 O          5.0144933059       -1.4603551326       -0.0875616892
 H          4.2833520042       -1.8438576059        0.4333143825
 H          5.7793170119       -1.4757570610        0.5337409121
 O         -0.2235660340       -3.9636744359        0.4600710309
 H          0.4290764755       -3.4333490292       -0.0474363555
 H         -1.1003814225       -3.6371791510        0.1938039983
 O         -0.7792353509       -0.8835151342        3.3312458709
 H          0.1048606071       -0.5889459319        2.9941652538
 H         -0.6490914202       -0.8598497950        4.3166993854
 O         -0.7663850066       -0.3830210624       -3.8319327299
 H         -1.4851210995       -0.2284844788       -4.4723282327
 H         -1.1252833593       -1.1082434235       -3.2678710790
 O          1.6847521462       -0.1203748721        2.8741009046
 H          1.8615263390        0.8401543563        2.8466084352
 H          2.0005903060       -0.4520120292        3.7397307864
 O         -1.9003254556        1.5796568803        3.5421268569
 H         -1.7280273218        2.0915216074        2.7041424518
 H         -1.4965612331        0.7044641948        3.3772108665
 O         -1.3947461768        2.7718334347        1.3130369977
 H         -0.7587442746        3.4908710709        1.4842266959
 H         -2.1470636138        3.2089523192        0.8590934645
 O         -1.7194347431       -2.4900820079       -2.5258878155
 H         -2.5396470965       -2.7599876715       -3.0047815416
 H         -2.0154775565       -2.4265607604       -1.5999102735
 O          1.9690086277        2.5690650284        2.7394472324
 H          2.7144552827        3.0951440846        3.0427660423
 H          1.8798884117        2.7722613733        1.7871465092
 O         -0.4501694935       -3.5800448588        3.0460755366
 H         -0.3349115885       -3.7447446767        2.0766643255
 H         -0.6304879628       -2.6258757934        3.1451834425
 O          4.6483811913        1.2850924641        2.7516509019
 H          4.2808468347        1.1891179523        1.8443394237
 H          4.5967825795        0.4113267443        3.1820072355
 O          5.9576753943        0.0126088716       -3.1463575570
 H          6.3653245601       -0.8623921148       -3.1818651083
 H          5.0038201337       -0.1694126063       -3.0292932929
 O         -5.0681611499        1.9586506190       -4.5356717369
 H         -5.7407929656        1.3559659888       -4.1901959020
 H         -4.7721757811        2.5002862732       -3.7892800138
 O          1.3652121762       -2.2469069240       -3.5053048861
 H          1.2955073471       -2.4038935275       -2.5345837947
 H          0.6557244974       -1.6339519715       -3.7387221276
 O          7.0178805500       -1.6082009666        1.6775443777
 H          7.1651835877       -0.6737604409        1.9564252445
 H          7.7042027845       -1.7517966298        0.9961560382
 O         -3.3051990645       -1.2769145063        2.1373254502
 H         -2.4798122444       -1.2057235055        2.6371976357
 H         -3.6964635232       -0.3829347550        2.1161276705
 O          7.1702768867        1.0263736027        1.9274203436
 H          6.2700680896        1.2145584572        2.2819070643
 H          7.1027749618        1.0352162799        0.9591321140
 O         -4.5761879091        1.1875240682        2.1356311421
 H         -4.3639262756        1.8461452931        2.8191320447
 H         -5.3848949077        0.7172799334        2.4623408241
 O         -5.3741992694       -2.8245485001       -1.0609295576
 H         -5.2987601118       -3.5789248872       -0.4248895996
 H         -5.8016584966       -2.1132168055       -0.5410676817
 O         -6.4233746600       -0.6429559358        0.1401849160
 H         -7.3152175311       -0.3239422668       -0.1079710717
 H         -5.8043064980        0.0594590665       -0.1317820814
 O         -2.6757477370       -2.8116355378       -0.0450960856
 H         -2.9869598587       -3.7360245688       -0.0998225689
 H         -2.9999782043       -2.4534002164        0.7979896551
 O          5.6456486144        3.2649104288       -0.6615824574
 H          5.0445830087        3.9775540571       -0.3275372580
 H          5.4720994886        3.2125884949       -1.6258831139
 O          7.0603257549        0.9177455558       -0.8552758405
 H          6.6568110769        0.5802890421       -1.6848061022
 H          6.9266970528        1.8721781916       -0.8861183494
 O         -3.3502014288        4.1463889668        0.1120549306
 H         -2.7403116803        4.8935627217       -0.0830351433
 H         -3.9622116337        4.4659779937        0.8125468886
 O          4.7966148384       -1.2834746382        3.5870538184
 H          5.7010906121       -1.5577800767        3.4217480775
 H          4.2509902437       -1.6640206479        2.8591703421
 O         -6.6949227666       -0.2202028279        2.7697733050
 H         -6.2649639195       -0.9201479534        3.3100825863
 H         -6.6890027650       -0.5477929871        1.8447807587
 O         -6.5921451388        2.8082709383        0.9522921254
 H         -5.8767069635        2.2044441326        1.2119199605
 H         -6.7639099979        2.6377170103        0.0112659914
 O         -5.2006247616       -2.0731984685        3.9070908523
 H         -4.7559131893       -1.6433033217        4.6492534671
 H         -4.5164345150       -2.1011748812        3.2111320038
 O         -3.3142002722       -0.3212734317        5.1998781942
 H         -2.9728433621        0.4042657364        4.6616207323
 H         -2.5826360676       -0.5939719666        5.7590013480
 O          6.3756838998       -2.5908039184       -2.1630673109
 H          5.8429210250       -2.2176467879       -1.4286483627
 H          5.7685117301       -3.1721656531       -2.6443904568
 O          3.7042623298       -4.0996488662       -0.3683864988
 H          4.3681785091       -4.1312923415        0.3548424492
 H          3.1174442908       -4.8841198463       -0.2698396950
 O          5.6640726932       -4.1095599597        1.4512634763
 H          6.0394811450       -3.2829298118        1.7779386184
 H          6.3497216282       -4.4576895964        0.8505601886
 O         -7.2136483908        2.1027768105       -1.6707722992
 H         -6.9030802271        1.3145821774       -2.1805555551
 H         -7.2310146758        2.8352370580       -2.2862292328
 O         -6.4516005431       -0.0200160336       -3.0894916938
 H         -7.0524620451       -0.7727249384       -2.8852675729
 H         -5.5610732874       -0.3233327072       -2.8088141012
 O          8.4848200634       -1.4710078291       -0.5865763048
 H          8.3075410290       -0.5205503268       -0.6372452960
 H          7.9952555907       -1.8546820422       -1.3244779335
 O          0.7373812873        4.2880521664       -3.7774773009
 H          1.6071628950        4.6418552657       -3.5159702301
 H          0.8962256004        3.4138868548       -4.1654061047
 O          4.1772151966       -3.9944479697       -2.9809118061
 H          3.6410591304       -4.7016894836       -3.3477670321
 H          4.0172716584       -4.0448762807       -2.0101117605
 O         -8.8804224396        0.4392608404       -0.1879057561
 H         -8.9601975554        0.8803680170        0.6968860323
 H         -8.6055619267        1.1315462719       -0.8051793000
 O          2.4639306369       -1.4846844392        5.0654337094
 H          3.4142940090       -1.3330727001        4.9784405639
 H          2.3163127994       -2.3639066333        4.6729507333
 O          2.1025405627       -3.7592749596        3.5531610634
 H          2.3914759090       -4.6685419370        3.6198951548
 H          1.1146919942       -3.7713781758        3.4372468981
 O         -0.1085497366       -0.4764077452        5.8119212180
 H          0.7540264328       -0.9062755640        5.8733467511
 H          0.0943857191        0.4783136486        5.6945014224
 O          3.8568632958        4.9555384673        0.2872777617
 H          4.1361071271        4.8701807513        1.2180221931
 H          3.0932004019        4.3388191622        0.2099172198
 O          1.3563095237       -5.1048460932       -3.1502017911
 H          1.3882696893       -4.1685591192       -3.3924769839
 H          0.4149857094       -5.3335351831       -3.1369479876
 O          0.3398812085        2.0628207782        5.0127823847
 H         -0.5228913812        2.1146813439        4.5671277301
 H          0.9811794682        2.3289507292        4.3397096047
 O          4.9100686806        2.7437350341       -3.1634939885
 H          5.4119708148        1.9951990553       -3.5010761451
 H          4.0553140282        2.3600891017       -2.8486874033
 O          3.5492300458        0.5080390860       -4.9622996536
 H          4.1745775522        0.8814318767       -5.5813922560
 H          3.6468821303       -0.4656637826       -5.0160495114
 O          4.6787682313        4.0413537441        2.7377807341
 H          5.6168774351        4.2297844803        2.5518316375
 H          4.6692467481        3.0809670477        2.8746102878
 O          1.7174551099       -5.8289194133       -0.4827440339
 H          1.6051229294       -5.7089396624       -1.4425590088
 H          0.9351773921       -5.4299313000       -0.0771123584
 O          7.1976541788        3.8536278153        1.6989677272
 H          7.4765580599        2.9623719631        1.9550489886
 H          6.8628609673        3.7801782133        0.7960948024
 O         -8.6957802609        1.5882781129        2.1734726627
 H         -8.1730492632        0.9315343976        2.6571892961
 H         -8.0456239666        2.2443000224        1.8605615906
 O         -7.6993545054       -2.2659930679       -2.3884917411
 H         -8.2667049117       -2.2818554431       -1.6037703525
 H         -6.8846181076       -2.7123459729       -2.1015872310
 O          3.1600996961        4.9638357585       -2.6941288939
 H          3.8797273817        4.4054873716       -3.0098469281
 H          3.3758695598        5.2176611491       -1.7908974881
 O         -2.7753058554       -5.4690360405       -0.4497873181
 H         -2.2605960688       -5.5367040512       -1.2760031786
 H         -3.6598310210       -5.8029037090       -0.6097594559
 O         -1.4203119233       -5.1391752608       -2.8108476037
 H         -1.3316891766       -4.1745413180       -2.6483809736
 H         -2.1534943804       -5.2055300611       -3.4290131777
 O         -5.2603117340       -4.7021707337        0.7577044456
 H         -6.0574214963       -4.4427739297        1.2619860806
 H         -4.5345968113       -4.6703461708        1.3994430663
 O         -1.4260265014        5.8311890777       -0.5854241584
 H         -0.9009716028        5.0346870237       -0.8417207942
 H         -1.7214843589        6.1697655024       -1.4397781852
 O         -1.9357332689        5.3006463914       -3.2510681140
 H         -1.0845766977        5.0351837301       -3.6224643960
 H         -2.5658399517        4.6043386818       -3.4519276663
 O          0.0833340837        5.0300217111        1.6452355180
 H          1.0080091103        5.2040385631        1.4628934250
 H         -0.4312481531        5.5958132579        1.0543352529
 O         -2.9246813857       -4.6193016530        2.2537100645
 H         -2.5546511409       -5.1966757841        1.5759359273
 H         -2.1761435899       -4.3291528344        2.7944772675
 O         -7.2444553905       -3.5104589226        2.1129096014
 H         -6.7982866855       -2.9892489845        2.7881430279
 H         -7.7332672993       -2.9181455019        1.5232056523
 O         -8.9295790053       -2.2371702132        0.1640505928
 H         -9.7744184860       -2.6491330992        0.3414274017
 H         -9.0888751656       -1.2796502089        0.0827599067
 O         -3.9261692677       -3.6527375567       -3.3929293971
 H         -4.3829838405       -3.1539647338       -4.1036783663
 H         -4.4976450155       -3.5745902087       -2.6184344287
 O          3.6505423853       -2.1894339281       -5.0465664949
 H          2.7062663241       -2.3259168812       -4.8975768362
 H          4.0779339032       -2.7652491739       -4.3944943068
 O          7.6076991384       -4.3658307341       -0.4179637110
 H          8.4023776608       -3.8807804532       -0.1854431475
 H          7.1982589368       -3.8708938082       -1.1492689294
 O         -5.0207663372        4.7612058445        2.0788028435
 H         -4.7305229801        4.3179627879        2.8856607251
 H         -5.7795083986        4.2559056228        1.7437985671
 O         -5.1225416973       -1.9739038378       -5.0967232868
 H         -4.4345264682       -1.2884956755       -5.1951674723
 H         -5.9062614034       -1.5292247627       -4.7614440024
 O         -4.1321678895        2.9677470518        4.1528555101
 H         -3.1998188788        2.6945306150        4.1463165525
 H         -4.4955583700        2.7133241869        5.0018650169
