  87

 H         -0.5425054111       -1.1597996586        0.9180873611
 C         -0.6112510052       -0.5412956740        0.0100749192
 H         -0.5391308398       -1.1969144471       -0.8712436596
 C          0.5103658647        0.5037878334       -0.0094871832
 H          0.3911098455        1.1518924072        0.8600966298
 H          0.3944399220        1.1152669955       -0.9056411621
 O         -1.7891825171        0.2100258092       -0.0077307033
 H         -2.5646581754       -0.3620747642        0.0026734610
 N          1.8637421189       -0.1172780947        0.0059475182
 H          1.9871272137       -0.7237037737       -0.8163106205
 H          1.9839787963       -0.6890763201        0.8531041603
 H          2.5930828888        0.6072400315       -0.0077051370
 O          2.2899062239       -1.0398533753       -2.5347164384
 H          2.6380511099       -0.1380960023       -2.6811894441
 H          3.0583552200       -1.5670769663       -2.2847961118
 O          0.7072817819        0.9322722830        3.3185127981
 H         -0.2267600477        1.1305059625        3.1329507607
 H          1.2107704026        1.7163005854        3.0562509811
 O          3.7331524339        1.8275941695        0.4716803357
 H          4.1370123852        1.1604656809        1.0655463166
 H          3.1432742770        2.3742731191        1.0342636401
 O          1.9364766890        3.1113977411        1.9928553740
 H          1.0703415094        3.3103003147        1.5491270566
 H          2.1878732535        3.9168203294        2.4462846042
 O         -0.4817917483        3.4961763702        1.0551232151
 H         -0.8709136992        3.2973905384        0.1789588383
 H         -1.0428520139        3.0495187632        1.7002958938
 O          3.3655195127        1.4660791390       -2.4536688286
 H          4.2650721082        1.1904283763       -2.6944853605
 H          3.4443626871        1.8184428307       -1.5587225798
 O         -3.1938508158       -2.3532130884       -0.2235761844
 H         -2.8660973029       -2.6025221811        0.6577485159
 H         -3.9472815052       -1.7632422082       -0.0880554769
 O         -1.8683848668        1.4578699356        2.3820205144
 H         -1.8087776082        1.0355464212        1.4941611591
 H         -2.4398207063        0.8672114318        2.8965933048
 O          2.1123205696       -1.1857836947        2.4453711846
 H          1.5947022605       -2.0237423599        2.4530009323
 H          1.5815652246       -0.5135452777        2.9200282101
 O         -3.6220910863       -0.5382402933        3.0998540376
 H         -4.0607948122       -0.4025463848        2.2149225240
 H         -4.3173177806       -0.5343258932        3.7584855451
 O          4.5743531069       -0.3156551838        1.8845931053
 H          5.2430686954       -0.4453316565        2.5575235500
 H          3.7490297229       -0.7261679450        2.2191334034
 O         -4.6338513217       -0.1395996832        0.7078263744
 H         -5.6023621157       -0.0903694835        0.7739525165
 H         -4.3548904683        0.7892275042        0.5145616661
 O         -1.6581931359        2.7834594472       -1.3002469705
 H         -0.9416666322        2.9461213062       -1.9253124896
 H         -1.9981002739        1.9038543829       -1.5660168117
 O         -3.8654186375        2.4063274990        0.5306587583
 H         -3.3111115820        2.4740533293        1.3183083561
 H         -3.3063642277        2.6782398024       -0.2086241501
 O          0.5347308720       -3.2573004121        2.0134211132
 H         -0.4136583519       -3.1125366994        2.1367244015
 H          0.6834826754       -3.3350674441        1.0547705074
 O          0.5421268491        1.9188693449       -2.8621582465
 H          0.2302310523        1.1272418378       -3.3146369453
 H          1.4958438559        1.9568498044       -2.9922461679
 O          4.3956969037       -1.2471779198       -0.8189365848
 H          5.0228615020       -0.7342147291       -1.3517918356
 H          4.6369566254       -1.0931764349        0.1022125147
 O         -2.2452989655       -2.7424541091        2.3427007413
 H         -2.6416144295       -1.9377488868        2.7377958791
 H         -2.5410828766       -3.4846727511        2.8724387395
 O         -1.4400293208       -3.1525013419       -2.1295914705
 H         -2.1093416821       -2.8252390545       -1.4940403783
 H         -1.8458715233       -3.8907574850       -2.5862814827
 O          0.9587194788       -3.1513592869       -0.7124118350
 H          1.6358191528       -3.7062106892       -1.1009185629
 H          0.1560095877       -3.2554739390       -1.2518106148
 O         -7.2843808657        0.4041337950        0.9940083561
 H         -8.0370139782        0.0576742315        0.5108338320
 H         -7.3623728356        1.3615619146        1.0011298099
 O         -0.3514080467       -0.8944021331       -3.3958364461
 H         -0.7733759569       -1.7290620542       -3.1408990939
 H          0.5875769914       -1.0171679221       -3.1875070387
 O         -2.5889963270        0.5692391774       -2.6179638388
 H         -3.0061687280        0.8641107993       -3.4279605464
 H         -1.7928163467        0.0768469934       -2.8792437854
 O          5.9215862094        0.4872419622       -2.3782158063
 H          6.1965946343        1.1429206989       -1.7004833389
 H          6.7068534207        0.2428112157       -2.8678438810
 O          6.2556375417        2.3330410879       -0.4816667187
 H          6.4596163983        3.2555719906       -0.6330094377
 H          5.3649237806        2.2937769744       -0.0903468407
