  387

 H         -0.5425054112       -1.1597996585        0.9180873603
 C         -0.6112510051       -0.5412956740        0.0100749179
 H         -0.5391308395       -1.1969144471       -0.8712436602
 C          0.5103658645        0.5037878337       -0.0094871839
 H          0.3911098458        1.1518924072        0.8600966291
 H          0.3944399221        1.1152669955       -0.9056411628
 O         -1.7891825169        0.2100258092       -0.0077307039
 H         -2.5646581753       -0.3620747642        0.0026734603
 N          1.8637421187       -0.1172780951        0.0059475213
 H          1.9871272141       -0.7237037740       -0.8163106222
 H          1.9839787969       -0.6890763203        0.8531041610
 H          2.5930828886        0.6072400317       -0.0077051380
 O          3.3469123404        2.1845892878       -0.2122672328
 H          2.8168828894        2.8353294134       -0.7314069202
 H          4.0119350941        1.8163013086       -0.8429984947
 O          2.0017848060       -1.6157537308        2.2992222989
 H          2.8129198708       -1.5420502766        2.8392286376
 H          1.5732414497       -2.4491908263        2.5569820005
 O         -1.3522728160       -4.5079553519        2.5934202773
 H         -1.4873434101       -3.8744027025        1.8684034042
 H         -1.7402012879       -4.1315737231        3.4113312704
 O         -0.9266801319       -3.7237415021       -3.1871809588
 H         -0.9179530723       -2.7586594609       -3.0887619145
 H         -1.8330061528       -3.9983896128       -2.9680431605
 O          1.8673747589       -1.5574603414       -2.2934480241
 H          1.9242246801       -2.5348407849       -2.3068811308
 H          1.0267528527       -1.3201098311       -2.7268130114
 O          1.4976490500       -0.1371133574       -4.9518154990
 H          1.3791645759       -1.0874488778       -5.0826948995
 H          0.7995120296        0.3237111269       -5.4407337443
 O          4.1441385013        0.8627069933        2.2915645940
 H          4.9638593095        1.3606583749        2.4363953905
 H          4.2869037618        0.4309278448        1.4090230750
 O          4.9519367784        1.6297214130       -2.1864239406
 H          4.5779782430        0.8300130483       -2.6308629738
 H          5.9151874218        1.4630805690       -2.2390615459
 O         -1.3874378836        1.3864817560       -2.6922205030
 H         -1.8631812490        1.7135992356       -3.4888556573
 H         -2.0100703830        1.4807769069       -1.9392549588
 O          3.6577315659        1.6069915615       -5.4105013071
 H          3.4971074299        0.8444514672       -4.8127776779
 H          2.9133826206        1.6286672143       -6.0128772508
 O          1.4140994677       -4.1651168338       -1.9983047949
 H          1.2955458811       -3.9026686841       -1.0540310230
 H          0.5365202406       -4.1068250063       -2.4190349341
 O          0.7878757400       -2.8840771918       -5.2520159601
 H          0.1310610401       -2.5246070758       -5.8619390736
 H          0.2807174375       -3.4030306019       -4.6106351931
 O         -3.6642866609       -1.9197580204        0.3169179720
 H         -3.4614485783       -1.9863903817        1.2847358134
 H         -4.2229724154       -2.6969812150        0.1058815245
 O         -1.3755030515        1.6291724816        2.5424879728
 H         -0.6619664962        2.2896065850        2.6293288949
 H         -1.5445054077        1.4791530025        1.6025569016
 O         -3.2535605341       -1.3070202377       -2.6425665374
 H         -3.6714296653       -0.6974900433       -2.0067283212
 H         -2.3047977204       -1.0966932202       -2.6826582334
 O         -0.3139575130        3.6487773728       -1.8610029325
 H          0.6456664583        3.8238162033       -1.8817539862
 H         -0.4578429429        2.7441959229       -2.2095580493
 O          2.6798460700        3.4921604663        2.1097719111
 H          2.9035031066        2.8255244699        1.4450157741
 H          3.0998502598        3.2258431681        2.9588952406
 O          1.5340318242        0.9476570398        2.8685544137
 H          2.4959681102        0.9995353029        2.7166498584
 H          1.3186346022        0.0015911208        2.8071680464
 O         -0.9751384703        3.7456204447        0.6853926226
 H         -0.5168301474        4.4662183726        1.1548025473
 H         -0.6045726025        3.7653504416       -0.2236889685
 O         -2.9723987953        2.4125942978       -0.8053227968
 H         -2.2340004268        2.8510595388       -0.3692950000
 H         -3.4850154630        3.0988570978       -1.2886625723
 O         -3.9662301305        1.8678780665        1.5864619951
 H         -4.4043777903        2.7253797366        1.7423343236
 H         -3.6043410030        1.9056972178        0.6760116040
 O          3.6127179741       -2.6962325932        0.1915112790
 H          2.6746259877       -2.7947997661        0.4202731414
 H          3.7023811553       -2.9178664796       -0.7578073214
 O         -1.5224460396       -3.4786264003        0.0357169464
 H         -1.7058987642       -4.3286854021       -0.4042465661
 H         -2.3039185105       -2.9018514059       -0.0531337839
 O         -4.6688032219        0.2969815201       -1.1119190150
 H         -5.4333316866       -0.3246712597       -1.1310350899
 H         -4.9958042809        1.0865904202       -0.6473898498
 O          4.5700659556       -0.2034244614       -0.0093892629
 H          5.5264990294       -0.1322161701       -0.1908181119
 H          4.3762390942       -1.1528423858        0.0788440956
 O          5.3474948060        3.8323549383        0.5036528579
 H          4.6464163612        3.1724228801        0.3162350895
 H          5.9320872344        3.8307952263       -0.2845769467
 O          6.7413701943       -2.8639388515        0.4997009100
 H          6.3226357794       -3.0980026976        1.3389308675
 H          7.6160686105       -2.5092889689        0.7561666308
 O         -4.7892818474        1.9830961704       -3.1947729646
 H         -4.6137169603        1.3652109913       -2.4603980486
 H         -5.5394047499        1.6098143445       -3.6922730895
 O          4.2166454231       -4.9732892406        1.4106173473
 H          4.2239947676       -4.7376211332        2.3546475315
 H          4.1086684986       -4.1086194255        0.9475352461
 O          7.2439179482        0.5251247041       -2.8572906757
 H          6.8920232520       -0.3067999558       -2.4729666391
 H          7.0247474132        0.4941330583       -3.8037135429
 O         -0.6306873946       -1.0077250805       -3.2463496366
 H         -0.7498780789       -0.0531631265       -3.0092387121
 H         -0.7523247928       -1.0465738836       -4.2239400624
 O         -4.7756018329       -4.2570238340       -0.1743719527
 H         -4.3815771361       -4.9063455037        0.4376870370
 H         -5.7520509581       -4.2498282658       -0.0856244628
 O         -0.6452067548       -0.9208467681        3.2008369068
 H         -0.8957545536        0.0156235163        3.0804993554
 H         -1.4631551928       -1.4360786638        3.1327279187
 O         -3.4892661581        0.4240980661        3.7855986746
 H         -2.7814130432        0.7485907119        4.3664013114
 H         -3.4776520876        0.9977566503        2.9944676010
 O         -6.7980497281       -1.5320347386        3.5053840428
 H         -6.8847458426       -0.8177953791        4.1481960686
 H         -6.2901461738       -1.1242937903        2.7661134148
 O          4.0843023904       -1.2145900686        3.9472895094
 H          4.3292075749       -0.4205499737        3.4214609737
 H          3.6849894995       -0.8612849393        4.7607239955
 O          3.7650594643        5.8826030330       -0.3596029211
 H          4.4282666719        5.2450943265       -0.0248253159
 H          3.3419566246        6.2343215406        0.4475855098
 O         -5.4701253334       -0.3122480342        1.5704564087
 H         -4.9968183613        0.5434652668        1.6438993725
 H         -4.9652826588       -0.8309372344        0.9210485407
 O         -4.8757560703        4.3778431360        2.1579083143
 H         -4.3068836547        4.2823752782        2.9432034603
 H         -4.3471821877        4.9146283285        1.5336252198
 O          0.3267330592        3.5803192819        3.3400160942
 H          0.5931173161        3.2458688764        4.2017146720
 H          1.1307612507        3.5611537378        2.7819513563
 O          1.6433730069        1.4699138646       -2.7973006817
 H          2.5869025724        1.5056347857       -2.6318348952
 H          1.5365712634        0.7978957287       -3.4983326540
 O         -2.7710520815        2.3996856859       -4.7240441990
 H         -3.5976384761        2.2506801804       -4.1812130675
 H         -2.5361414241        3.3295108096       -4.5511485946
 O          6.8024795014        4.0555193944       -1.7214501642
 H          6.8957218306        3.5477158009       -2.5492823315
 H          6.4029494968        4.8985752798       -2.0300289562
 O          7.2647219796        0.1048164012        0.0642285597
 H          7.6854197755        0.9685365098       -0.0905880392
 H          7.1699784378        0.0042008196        1.0227673175
 O          3.8925860095       -0.3331523356       -3.5331325505
 H          4.5233959186       -0.9667011032       -3.9303249180
 H          3.1911123454       -0.8600258862       -3.1046258030
 O         -1.2238327050       -1.1272826351       -5.8524630367
 H         -2.1925990763       -1.2567461997       -5.7867199762
 H         -1.0833173926       -0.2346705139       -6.1950575920
 O         -0.4691660379        1.5474782725       -5.9635594001
 H          0.1093264823        2.2755762145       -5.6614224073
 H         -1.3524731319        1.8173666500       -5.6699647350
 O          0.4961426467       -1.9032238709        5.3375579916
 H          0.1303237101       -1.4746453978        4.5193010509
 H         -0.2353104186       -1.8604563168        5.9657968030
 O         -2.9039421512        3.5612590631        3.8461762709
 H         -2.3756666820        4.3956147769        3.8421825269
 H         -2.4636457930        2.9520941671        3.2230567046
 O         -3.0775350205        5.4088796794        0.3688274168
 H         -2.4080695425        4.7225352201        0.5785297427
 H         -3.5382039894        5.1275532295       -0.4490057723
 O         -7.9891464376        0.1182488174        0.7276572375
 H         -8.3092557573        1.0266361901        0.8206784683
 H         -7.0722998570        0.0937527129        1.0536164649
 O          1.1013436641       -3.8963785430        3.5489995601
 H          0.8539270659       -3.3757879614        4.3317906504
 H          0.2588139995       -4.2428801977        3.1920506115
 O          1.0544442549       -3.5115032204        0.5087982481
 H          0.0902041419       -3.4018138965        0.4311216871
 H          1.2039134319       -4.3822508526        0.9322415264
 O          1.1737512216        1.7546712679        5.2992639333
 H          1.2599906091        1.4058819889        4.3652969360
 H          1.6335365619        1.0874902312        5.8316960495
 O         -3.8129871645       -1.3915646276       -5.2586797270
 H         -4.2849765611       -2.2239601513       -5.3779158592
 H         -3.7247020323       -1.2830880462       -4.2873328285
 O          3.5530197886        3.0739867520        4.5697147559
 H          4.2378304238        2.4092848971        4.7773467223
 H          2.7506769461        2.7690161369        5.0210014356
 O          3.9636447835        3.6238026601       -3.6294829550
 H          3.6784684011        3.1299094397       -4.4187437335
 H          4.4900759292        2.9675895136       -3.1140064340
 O          3.3567517853       -3.8274703560       -4.8086214680
 H          3.2368097988       -4.7564530262       -4.5355358624
 H          2.4845060643       -3.5059506934       -5.0785923405
 O          4.1260441010       -3.4007092331       -2.2965346923
 H          4.3672060868       -4.3036779085       -2.0085174895
 H          3.7811385988       -3.4944309111       -3.2073840390
 O          1.0673104863        3.3718397868       -4.6789483152
 H          0.8774441330        4.2440756325       -4.3108588939
 H          1.2558879085        2.7820194831       -3.9234600963
 O         -6.6998592900       -1.3289052349       -1.2754386375
 H         -7.5456322824       -0.8691527453       -1.0911595514
 H         -6.7023238994       -1.5026162282       -2.2438103491
 O         -7.3689635268       -3.6857140781       -0.2160266596
 H         -7.9250203491       -3.4053407050        0.5341408539
 H         -7.0582045929       -2.8347931858       -0.6013601479
 O          2.2931363695        4.1086732726       -1.6524290696
 H          2.7198771307        4.8573181296       -1.1820954796
 H          2.8071443333        3.9788481396       -2.4828550334
 O          5.1964154696        5.9226559556       -2.7211754549
 H          4.6537785808        6.1674094589       -1.9595407216
 H          4.7110807055        5.2302485259       -3.1979336526
 O         -6.7649443191        2.2040646807        2.4928142799
 H         -6.6043862997        1.6475336850        3.2746187855
 H         -6.3798005287        3.0627809791        2.6887495303
 O          2.5469299821       -0.4610090364        6.0886349812
 H          2.8747230811       -0.7840055199        6.9256614291
 H          1.7916989546       -1.0500436051        5.8240140367
 O         -1.5632571866        1.5808465445        5.4496380373
 H         -0.5868605809        1.6218798699        5.4462745299
 H         -1.8619976467        2.4319914417        5.0988321480
 O          6.0442260041       -1.6162687360       -1.8440679278
 H          5.3527068871       -2.2231415133       -2.1576876167
 H          6.3188416771       -1.9618005392       -0.9843119957
 O          7.6249837952       -3.1433013812       -3.4583631813
 H          8.0131170096       -2.4556784317       -2.8494276613
 H          8.3355360626       -3.4250286657       -4.0321441901
 O         -1.7151605417       -5.9758892455       -1.0289581871
 H         -2.0863938770       -6.1257345819       -1.8985609104
 H         -0.7804737949       -6.3079184136       -1.0574547666
 O         -3.5401568435       -3.9307251493       -2.4961224655
 H         -4.0219809121       -4.1862057345       -1.6833809342
 H         -3.4947423375       -2.9474672681       -2.4615890393
 O         -1.9755358589        4.7654024377       -3.6821578782
 H         -1.4462353465        5.3994757049       -4.1683660572
 H         -1.3774865166        4.4191072795       -2.9816209315
 O         -3.1467548389       -2.0133545606        2.8591645516
 H         -3.3559294398       -1.1141403152        3.1985854363
 H         -3.7482619125       -2.6097456277        3.3539636168
 O         -5.9449825955        0.7570695014        4.7196682381
 H         -5.0757648666        0.5717359118        4.2933218880
 H         -5.7367663701        1.5098382909        5.3031927603
 O         -8.6969854110       -2.2501352415        1.6760970511
 H         -8.1198831458       -2.2103903348        2.4563263087
 H         -8.5009093941       -1.4120877050        1.1960774041
 O          8.8859674401       -1.5801715741       -1.7515356546
 H          8.3339208310       -1.0925340885       -1.1214845062
 H          9.3183784575       -2.3122046926       -1.2650574538
 O         -2.0036937161       -1.1245840290        6.1699966170
 H         -1.8103554843       -0.1918848691        6.0116086391
 H         -2.9650038982       -1.1643680380        6.3449714665
 O          4.8123853018       -5.7895511275       -1.2594874311
 H          5.7800681195       -5.6340686197       -1.3170239265
 H          4.6063676872       -5.7727666903       -0.3166793267
 O          6.4471581978        2.1999118016        2.4481534149
 H          6.2453338931        2.8806107820        1.7864362161
 H          7.4172052309        2.0807267437        2.4096842347
 O          6.9735375471       -0.6034761368        2.7512258460
 H          7.3269448325       -0.1188262940        3.5249045937
 H          6.4874559804       -1.3698498453        3.0815085315
 O          8.5375924891        2.5029268832       -0.3646397261
 H          9.1630879229        2.2054916482       -1.0367111786
 H          7.9860099567        3.1727315525       -0.8006092565
 O          5.5189854513       -2.0439264069       -4.8170680735
 H          6.2333856762       -2.4553902413       -4.2918930613
 H          4.8812359748       -2.7434445863       -5.0193195681
 O         10.3097429460        0.1255066006        0.2510872831
 H         10.0918912682        0.3363075991       -0.6807160066
 H         11.2621678957        0.0561506294        0.3047427986
 O         -4.0995805671        4.5179487169       -1.9187418336
 H         -3.5654195557        4.7175333219       -2.6997515111
 H         -5.0458031833        4.5089696902       -2.1949715449
 O         -6.0869121208        2.3339851110       -0.1716891787
 H         -6.4223015488        2.1469882920        0.7232568527
 H         -6.1784845922        3.2939898979       -0.2671955421
 O         -7.8465841671        1.9963460665       -2.2458457620
 H         -7.1071068003        1.9034433228       -1.6124766403
 H         -7.5461378054        1.6486300242       -3.1024285209
 O         -3.2362402754       -5.9844279218        1.2780019545
 H         -2.7398349922       -6.2440063962        0.4860305303
 H         -2.5658558738       -5.5762898258        1.8626867161
 O          2.7456039720        6.1557876044        2.0802064878
 H          2.6744027012        5.1759501538        2.0892641660
 H          3.4728094420        6.3493194039        2.6812881051
 O          6.2465291322        0.5668995674       -5.4224268101
 H          5.3718381637        0.9697246866       -5.5525390919
 H          6.0886763978       -0.3892555566       -5.4437901985
 O         -6.8939984609       -1.8705144967       -3.8537544184
 H         -6.2766384417       -2.5369953417       -4.2031122422
 H         -7.7278917466       -2.3399492149       -3.6263690072
 O          9.1236187429        2.2619523630        2.2711313883
 H          9.1517066793        2.2127045030        1.2996374662
 H          9.0107861579        3.2048856841        2.4648691922
 O         -8.9442229836       -2.9903493831       -2.5937873541
 H         -8.5930184104       -3.4478736930       -1.8168854055
 H         -9.2733595322       -2.1332847482       -2.2777029946
 O         -9.2353149785       -0.3726788430       -1.6657811136
 H         -9.8545400837       -0.1048799961       -0.9657036594
 H         -8.9039505948        0.4597204854       -2.0379021018
 O          1.7573434998       -5.9369760736        1.3838059093
 H          2.7188918005       -5.6983563184        1.3815244788
 H          1.5154763458       -6.1244326382        2.2912522534
 O          0.8412462886       -6.6378000010       -1.1504120425
 H          1.1692047167       -6.6611569846       -0.2401930479
 H          1.1966550737       -5.8037154839       -1.5249081836
 O          7.2839395805       -4.7806674246       -1.2794966676
 H          6.9966148500       -4.1111207304       -0.6217527307
 H          7.3322065545       -4.3012054231       -2.1280910997
 O          5.5154130461        1.2963559342        4.8944873641
 H          6.2159177080        1.0028348990        5.4797399690
 H          5.9625498803        1.6032036318        4.0879722670
 O          3.8203652272       -3.9367539269        3.9109873263
 H          3.9161215265       -2.9703119241        3.9836484565
 H          2.8621116211       -4.0875917917        3.8641234397
 O         -9.0765392602        2.6702179624        0.2308797429
 H         -9.9214226784        2.2050781824        0.3129070626
 H         -8.8296784875        2.5776229003       -0.6992767216
 O         -7.1980540411        4.7632350752        0.3639122236
 H         -7.9612082254        4.2013719583        0.5694809053
 H         -6.7086021143        4.9030077917        1.1798162505
 O         -6.8293936069        0.7862360267       -4.4676289431
 H         -6.9168296449       -0.1736047297       -4.3285882974
 H         -6.3403869055        0.8939705240       -5.3069201202
 O        -11.0090035671        0.6947263978        0.1692494162
 H        -10.9592488492        0.1581468811        0.9963892329
 H        -11.9150673653        0.6378476868       -0.1324388758
 O          9.7940962376        1.0064290655       -2.2821184668
 H         10.3341905720        0.5215899518       -2.9053816258
 H          8.8577544896        0.7858617353       -2.5130991669
 O          9.0242588255       -1.8480992999        1.5525792790
 H          9.4372714180       -1.1663147374        0.9827686759
 H          8.3405677926       -1.3750768427        2.0753677345
 O          6.4354613217       -3.3261869677        3.2036323281
 H          5.6458241085       -3.7138432164        3.6011943993
 H          7.1972206324       -3.7776437621        3.5661270933
 O         -5.0012988937       -3.3417250468        4.2525767984
 H         -5.2057711195       -4.1762881833        3.8005678076
 H         -5.7436064622       -2.7459310785        4.0036798512
 O         -4.6828988944       -1.3226269483        6.2450655564
 H         -5.2368268678       -0.6227023494        5.8706107721
 H         -4.8643782777       -2.1227288526        5.7374509614
 O         -1.3414170504        5.6577025843        3.7100615601
 H         -0.5704939931        5.0650790352        3.6413437389
 H         -1.3015204114        6.1885681277        2.9075832890
 O          0.0796954684        6.1311863656        1.3858228193
 H         -0.0448592970        6.5095098718        0.5071344858
 H          0.9843517830        6.3215944698        1.6689773063
 O          5.1559652458        5.0198636702        3.0974332301
 H          4.7487931464        4.4474693976        3.7593892116
 H          5.0632168746        4.5684156026        2.2461203270
 O          6.7913331492        3.1089030049       -4.2513611490
 H          6.8205708246        2.2834701109       -4.7490744681
 H          6.1520697413        3.6770372846       -4.6856021897
 O         -4.4989244364        2.6611115988        5.8904115025
 H         -3.8386950394        2.2346407551        6.4399320827
 H         -4.0103091932        3.0862180179        5.1658758377
 O         -2.2119929704       -3.6213767835        4.9706083559
 H         -2.0798457603       -2.7385470153        5.3534401388
 H         -3.1406687657       -3.8304283592        5.0999195717
 O         -1.0726177756        6.5464934972       -1.1348340310
 H         -1.7973667661        6.1796738765       -0.5829322669
 H         -1.4807782148        7.2397862208       -1.6514719457
 O          8.2474260071        0.7367973715        4.7102788500
 H          8.3578130639        1.6682349346        4.5015432869
 H          9.0968749541        0.3325555349        4.4233650710
 O          7.8595689819        4.7164600863        2.3945513544
 H          7.0072517381        4.9047014950        2.8220200937
 H          7.8476761287        5.1775242703        1.5550212351
 O         10.3852337869       -0.0555442228        3.3519494239
 H         10.2100097331       -0.8384644900        2.8148890250
 H         10.2169112654        0.7104452919        2.7833091271
 O          0.6172459332        5.8932438192       -3.3393400769
 H          1.4720290309        6.3081855198       -3.2251017486
 H          0.1364935624        6.0009869962       -2.5024055326
 O          9.7412514366       -3.7519970864       -0.4360397754
 H          9.6326620900       -3.4790500071        0.4813635298
 H          9.0108048321       -4.3561872843       -0.6538815662
 O         -5.1105799693       -3.7742934110       -4.6161022033
 H         -5.5839569826       -4.5921341159       -4.7570251561
 H         -4.5178819769       -3.9192785679       -3.8389710348
 O         -4.8461406626        0.9436913306       -6.2725406837
 H         -4.1729676151        1.5928668661       -6.0436994784
 H         -4.4798853782        0.0780489393       -6.0234768546
 O         -5.5769241849       -5.3785183020        2.5779004930
 H         -4.7968222372       -5.8310492862        2.2248754406
 H         -6.3474744863       -5.7143427101        2.1204191343
 O          3.0764045636       -6.1599184336       -3.4404097188
 H          3.7231181945       -6.1838620472       -2.7197953232
 H          2.2562818897       -6.4907993391       -3.0685828024
 O         -6.7064741661        4.5933057243       -2.3706219188
 H         -7.1882106568        3.7650743390       -2.5208788785
 H         -7.0153824557        4.9355872462       -1.5211269878
 O        -10.8366800997       -0.7758283389        2.3765352436
 H        -10.1927077392       -1.4783201348        2.1431634724
 H        -10.4615448803       -0.2975429571        3.1166369797
