16

H 1.621991000 -1.851807000 -0.378205000
C 1.716172000 -0.824381000 -0.013382000
H 1.894366000 -0.868831000 1.066833000
H 2.605028000 -0.385956000 -0.475516000
C 0.464557000 0.004879000 -0.325998000
H 0.322587000 0.001355000 -1.416785000
C -0.782879000 -0.644801000 0.293987000
H -0.706889000 -0.580930000 1.386075000
H -0.785727000 -1.717799000 0.039951000
C 0.624234000 1.460631000 0.126665000
H 0.842089000 1.507871000 1.199833000
H -0.294482000 2.020159000 -0.053942000
H 1.446962000 1.951422000 -0.401528000
N -2.009998000 0.053316000 -0.110299000
H -2.202319000 -0.125661000 -1.091781000
H -2.806135000 -0.300999000 0.409530000
