  16
 
 H          1.6219910000       -1.8518070000       -0.3782050000
 C          1.7161720000       -0.8243810000       -0.0133820000
 H          1.8943660000       -0.8688310000        1.0668330000
 H          2.6050280000       -0.3859560000       -0.4755160000
 C          0.4645570000        0.0048790000       -0.3259980000
 H          0.3225870000        0.0013550000       -1.4167850000
 C         -0.7828790000       -0.6448010000        0.2939870000
 H         -0.7068890000       -0.5809300000        1.3860750000
 H         -0.7857270000       -1.7177990000        0.0399510000
 C          0.6242340000        1.4606310000        0.1266650000
 H          0.8420890000        1.5078710000        1.1998330000
 H         -0.2944820000        2.0201590000       -0.0539420000
 H          1.4469620000        1.9514220000       -0.4015280000
 N         -2.0099980000        0.0533160000       -0.1102990000
 H         -2.2023190000       -0.1256610000       -1.0917810000
 H         -2.8061350000       -0.3009990000        0.4095300000
