  131

 H          0.4630927079        1.1941025326        0.8323452956
 C          0.5529035755        0.5095402434       -0.0251092066
 H          0.4633421184        1.0989800594       -0.9466436105
 C         -0.5779259329       -0.5149488608        0.0205351871
 H         -0.4518492551       -1.1270258235        0.9278134322
 H         -0.4840892693       -1.1748678648       -0.8448928488
 N         -1.8603253881        0.1647702479       -0.0623309423
 H         -2.6131021668       -0.5138473280       -0.0751527671
 H         -1.9956541837        0.7570092268        0.7508171911
 O          1.7808081024       -0.1833448063        0.0209869117
 H          2.5006908389        0.4507195083       -0.0567171284
 O          3.1080989209        2.1399872189       -0.5344700001
 H          4.0114996023        2.4779286629       -0.3360111581
 H          3.1678447197        1.7557382711       -1.4402415970
 O          3.0396716637        0.9434592731       -2.9370206644
 H          2.5896460581        0.0793431996       -2.8757838007
 H          2.3596700506        1.5195328658       -3.3332461879
 O         -1.7591270997        3.8624778162       -1.8264264733
 H         -2.2314142296        3.8537839866       -0.9760124858
 H         -0.8286429500        4.0212626316       -1.6175327755
 O          0.8829144465        3.7707872202       -0.9329764906
 H          0.5343102455        3.8483322311       -0.0305454675
 H          1.7422385513        3.3232041863       -0.8407077106
 O          0.8513056118        0.6120068714        3.3114926550
 H          0.6875271192       -0.3479907094        3.3384937121
 H         -0.0201454912        1.0229118833        3.2069155868
 O          2.3283899607        2.5288329871        2.1156844204
 H          1.8933726104        1.7438442528        2.5072552591
 H          2.5205656447        2.3376726651        1.1820022226
 O          0.0448104171        3.8319418721        1.7386875566
 H         -0.0327168428        4.6843739786        2.1670920883
 H          0.9247561047        3.4617739843        1.9940922313
 O          1.6054568165       -1.3130357198       -2.5016116371
 H          1.8575684180       -2.2415435399       -2.5631291297
 H          1.6428196977       -1.0812577745       -1.5539389831
 O         -1.0675927304       -1.3269329084       -3.1837272786
 H         -0.0953098499       -1.2895522295       -3.1491951852
 H         -1.3446415582       -0.3996216694       -3.1909511360
 O          0.2022423376       -3.4446654231        1.2943740893
 H          1.1494359533       -3.2245249822        1.3187448017
 H         -0.0398894017       -3.4886039213        0.3526755407
 O          0.2873650387       -2.0372633097        3.6707503930
 H          0.2061869123       -2.5636233562        2.8542177146
 H          0.9761892162       -2.4551944835        4.1897965012
 O          4.2542639894       -2.3988065834       -1.1835990753
 H          4.6192035407       -2.9893842013       -0.4788362821
 H          3.4610420957       -2.8673400894       -1.4754471750
 O          2.5930863201       -2.2087075945        1.7395407573
 H          2.9456654691       -1.7381340804        2.5222737802
 H          2.3712092966       -1.5060460352        1.1067416332
 O         -1.8250004641        1.2742163934       -2.4785291853
 H         -1.8075080374        0.8829381027       -1.5564158358
 H         -1.8546986263        2.2456071585       -2.3347736636
 O         -0.6312718071       -3.5952023543       -1.3624564253
 H         -0.8455953557       -2.9379642131       -2.0398432295
 H         -1.5006322686       -4.0078712117       -1.1333151377
 O         -2.2333949365       -0.8916682774        3.5914028186
 H         -1.4006769912       -1.2132150816        3.9613413685
 H         -2.0324885423       -0.0558981809        3.1471116754
 O         -2.5465707466       -3.0684400693        1.9362686344
 H         -2.5117588107       -2.4048555665        2.6493076478
 H         -1.6289013651       -3.3133836798        1.7564123354
 O         -4.1588914436        2.3066802344        2.8260736056
 H         -4.6545000041        1.9575149090        2.0763574272
 H         -4.3766977660        1.6924281527        3.5733261416
 O         -4.3760246779       -1.3344045432        0.9283499167
 H         -3.7527106448       -2.0277405943        1.2044724268
 H         -4.9134463489       -1.6890683761        0.1933800563
 O         -1.6050316814        1.6951644817        2.4876928778
 H         -1.1479120856        2.4939835886        2.1782643290
 H         -2.5327801721        1.9794516124        2.6781674031
 O          4.6592693928       -0.2385681425        0.3782119985
 H          4.3749024501       -1.0028684100       -0.1630173337
 H          5.4361723066        0.1193402797       -0.0928754086
 O         -4.7847454273        1.2025826670        0.1740345418
 H         -4.7024266829        1.1019219926       -0.8163209198
 H         -4.4974560844        0.3391612915        0.5269460558
 O         -4.5195675214        1.0454914583       -2.4229939120
 H         -3.5525186584        1.0124197589       -2.5808340504
 H         -4.7583492344        1.9748333791       -2.5974964209
 O         -3.4281945249        3.5636730850        0.3222267803
 H         -3.8309816282        2.6750218298        0.2574897469
 H         -3.5130148910        3.8123156455        1.2455913187
 O         -3.4804642903       -1.7571233531       -1.7250596363
 H         -2.7663668494       -1.6420795499       -2.3659789981
 H         -4.2587623274       -1.3132297281       -2.0735860575
 O          3.4595135147       -0.6477316511        3.8058956300
 H          4.0573244079        0.0655384868        3.4937260540
 H          2.6608144931       -0.1922019204        4.0885302870
 O         -4.6544283048        0.3260061100        4.4775392143
 H         -3.8857197784       -0.2467073507        4.3496892925
 H         -5.3870125873       -0.1047003942        3.9964045087
 O          5.4124087239       -0.5323498091       -2.9216605539
 H          5.0426537973       -1.2865323850       -2.4317998742
 H          4.6683174758        0.0607180315       -3.1077010320
 O          4.7258319611       -3.8104539674        0.9862003940
 H          5.3993687540       -3.3100038149        1.4820817880
 H          3.8821803453       -3.4596646918        1.3205081581
 O          5.9502650142       -1.7804610565        2.3093460811
 H          5.5324501696       -1.1711969092        1.6735701937
 H          5.5172263582       -1.6229178706        3.1513674780
 O         -3.0919592327       -4.2246652424       -0.6354740843
 H         -3.4215320739       -3.4018684629       -1.0437379854
 H         -3.0952345860       -4.0707651187        0.3166698303
 O         -6.3805960135       -0.7956977944        2.6950488646
 H         -5.6454152757       -1.0748017446        2.1166515572
 H         -6.9998815469       -0.3360441774        2.1195136099
 O         -7.3551739565        0.4695962892        0.2470712057
 H         -7.9110467211        1.0508102927       -0.2720893951
 H         -6.4534196277        0.8685300378        0.2460547964
 O         -6.3337645874       -1.8297718765       -0.8629664021
 H         -6.9003137388       -2.5892887706       -0.7273171280
 H         -6.8191913308       -1.0502484319       -0.5293932469
 O          4.7724877953        1.3780087329        2.5794714379
 H          4.6967581612        0.8542749993        1.7630487197
 H          4.0287364805        2.0035379828        2.5680523179
 O          1.9985124349       -3.9557546933       -1.8092506878
 H          1.0363110480       -3.9643482450       -1.6324251010
 H          2.3015380210       -4.8610782216       -1.7343982047
 O         -4.5750217353        3.7641414693       -2.3372450261
 H         -4.4935623296        3.9176417684       -1.3873743570
 H         -3.7108916677        3.9937108505       -2.6960063178
 O          6.7871542028        0.6552881632       -1.0450700893
 H          6.3634393608        0.2661959363       -1.8587111929
 H          7.6444367347        0.2381721346       -0.9576334582
 O          0.7251638174        2.2525447091       -3.3927989049
 H         -0.1335427993        1.8194600402       -3.2822247319
 H          0.7468321717        2.9728679836       -2.7510734774
 O          5.5852140067        2.8363752261        0.1739378936
 H          6.1533072520        2.2376792384       -0.3349189858
 H          5.6975935793        2.5954873137        1.1018855880
