  106

 H          0.0000000000       -0.0000000000       -0.0000000000
 O         -0.9370979413       -0.4307840003       -0.1442285757
 H         -1.4752233632       -0.2078390266        0.7667231115
 H         -0.8385405038       -1.4240765497       -0.1318260987
 O         -0.9109427594       -3.0742524013        0.0965425602
 H         -0.1840892514       -3.4038272775        0.6663277203
 H         -0.8153006334       -3.5488354076       -0.7342540244
 O         -2.1155431829       -0.0492371373        1.9911534366
 H         -2.3050330351       -0.9640831124        2.2788591954
 H         -1.4873958385        0.3446074136        2.6389681452
 O         -0.5103164944        1.8493548036       -1.6013595264
 H         -1.3767502612        1.3832660781       -1.5716446632
 H         -0.6248434029        2.5189898067       -2.2974356789
 O          0.8758606976       -0.3775888827       -2.2677240865
 H          0.4412164067        0.4853466953       -2.1046674660
 H          1.5308755470       -0.2619359681       -2.9788630621
 O          1.2960296073        0.7195725276        0.2513179126
 H          1.5451733772        1.2997975308       -0.4899787252
 H          1.2163201760        1.2981234737        1.0354629322
 O         -2.9182405785        0.7863639545       -1.8968386002
 H         -3.0404393604       -0.1778282536       -1.8554278384
 H         -3.3406621646        1.1259565375       -1.0731563391
 O         -3.9262275465        1.4749300877        0.4426183159
 H         -3.3983615970        1.8810411158        1.1543297028
 H         -4.0870455119        0.5687266187        0.7439525070
 O          0.4461819755       -1.1649145931        1.9634858602
 H          0.1951399552       -1.8033932835        2.6542156856
 H          0.9055443168       -1.6399730086        1.2482656860
 O          1.7024719388       -2.0703497864       -0.2860763106
 H          2.6648774054       -2.0667832858       -0.1159892555
 H          1.5292764679       -1.3450706699       -0.9153652069
 O         -3.2150629022       -1.9439468620       -1.9032711690
 H         -2.3091074829       -2.0738556641       -2.2982138020
 H         -3.8303082541       -2.3215206306       -2.5323255665
 O         -0.8924069955       -2.1510109453       -3.0739641272
 H         -0.2864422961       -1.4382103427       -2.7576298314
 H         -0.3961051537       -2.9646942323       -2.8768704608
 O         -2.6709471147       -2.6785018344        2.1970741876
 H         -2.1452668982       -2.9504452440        1.4256488988
 H         -3.5340359993       -2.4275925342        1.8378118102
 O          4.1992113220        0.7241856648        0.9302320749
 H          4.0605992147        1.6833435025        0.9055996283
 H          3.6374862097        0.4160773407        1.6675113757
 O          4.2809189206        0.2880348225       -1.6830951113
 H          4.1370620926        0.3711048748       -0.7059515321
 H          5.2236460810        0.4072913944       -1.8075750311
 O          2.6511636149       -0.2429636730        2.9515217337
 H          1.7826098561       -0.3775348510        2.4873079789
 H          2.3783262084       -0.1616569312        3.8825451409
 O          1.1768964903        2.6431832346        2.1145454989
 H          2.0461524558        2.9974068928        1.8782171170
 H          0.5307266345        3.1808736922        1.6261626032
 O         -2.7808523837        4.1759444344       -1.1616713541
 H         -3.4588552444        3.5128521465       -1.0045020891
 H         -2.4814689902        4.0702907878       -2.0730483383
 O         -0.7004840501        3.5837544363        0.4127828563
 H         -0.5160423225        2.8655436868       -0.2344294077
 H         -1.3724516460        4.1175453823       -0.0512493387
 O          2.3397018379        2.2896323204       -1.7669700184
 H          3.0571850088        1.6574319099       -1.9250175898
 H          1.8188563808        2.3279809569       -2.5925888548
 O         -0.6127155233        1.3097370335        3.7217409144
 H         -1.3219580690        1.9649867723        3.6523243391
 H          0.1513388995        1.7145234093        3.2806058272
 O          3.3282396591        3.3486616249        0.5367364229
 H          3.7544717669        4.1998626507        0.4406979362
 H          2.9086579865        3.1410397056       -0.3199432957
 O         -0.4242869971       -2.9439212405        3.8120933601
 H         -0.0547060402       -3.7252959388        3.3836504432
 H         -1.3628277798       -2.9305678268        3.5777554911
 O          1.0048592930       -4.1589793323        1.7044165810
 H          1.7877323594       -3.6497785795        2.0132519251
 H          1.3425039067       -4.9421802525        1.2694465712
 O          3.1139428929       -2.8191543877        2.7301119413
 H          3.2560381646       -3.1544963752        3.6150541303
 H          2.9761644038       -1.8354935063        2.8361201324
 O         -4.4116289473       -1.3771089372        0.5152376955
 H         -5.3489118749       -1.4050352448        0.3223928344
 H         -3.9439342042       -1.6154014742       -0.3048446225
 O         -2.4314350494        2.8953792439        2.3341474443
 H         -1.7627655260        3.1519900412        1.6582804061
 H         -2.9526684444        3.6774037444        2.5168739740
 O          0.8528571698       -3.9450711990       -2.0036984276
 H          1.2490501293       -3.3032087570       -1.3681117209
 H          1.5494082267       -4.1389854001       -2.6321642966
 O         -1.3789625857        0.6126432848       -4.2159305493
 H         -2.0072769487        0.7215384258       -3.4836212895
 H         -1.2778454073       -0.3371381854       -4.3298423867
 O          0.9883198461       -0.6349417143        5.0273811217
 H          0.5180029014       -1.4667270529        4.9015435811
 H          0.3475758789        0.0599107949        4.8242120840
 O          4.3297329749       -2.0925825472        0.3714254893
 H          4.5765806926       -1.1961539828        0.6288927202
 H          4.1627936507       -2.5607098819        1.2026289428
 O          3.6116235542       -2.4132512481       -2.4720171805
 H          4.0954520755       -3.0667319742       -1.9645405738
 H          3.8294687671       -1.5661168920       -2.0556502049
 O          1.0326709182        1.9789891383       -4.1577118094
 H          0.1954739778        1.4801055350       -4.2225953183
 H          1.6923272257        1.4403541572       -4.6058051543
 O          2.8613134091       -0.2147629763       -4.1149019132
 H          3.5322863833        0.0594033294       -3.4761465832
 H          3.0060903515       -1.1582313886       -4.2392543504
 O         -1.3421769973        3.5023759602       -3.6103772079
 H         -0.5386022883        3.8158449969       -4.0341221143
 H         -1.7115656892        2.8291036308       -4.1920112199
