  222

 H         -0.5425054112       -1.1597996582        0.9180873603
 C         -0.6112510051       -0.5412956746        0.0100749185
 H         -0.5391308395       -1.1969144471       -0.8712436599
 C          0.5103658647        0.5037878337       -0.0094871844
 H          0.3911098457        1.1518924076        0.8600966292
 H          0.3944399221        1.1152669959       -0.9056411628
 O         -1.7891825170        0.2100258094       -0.0077307037
 H         -2.5646581753       -0.3620747640        0.0026734604
 N          1.8637421187       -0.1172780947        0.0059475206
 H          1.9871272141       -0.7237037739       -0.8163106222
 H          1.9839787968       -0.6890763205        0.8531041602
 H          2.5930828886        0.6072400319       -0.0077051377
 O          1.7845045253       -1.8094997575        2.0979395965
 H          2.2107856050       -1.4971320433        2.9278415443
 H          2.3084052022       -2.5811669779        1.8053133209
 O          0.6154352547        5.1619314414        0.3363109180
 H         -0.2652480922        4.7744576322        0.5661994289
 H          0.5382322947        6.1093852584        0.4433341166
 O          1.2730419264       -2.1755356222       -1.9347871127
 H          0.7836137338       -1.5433976711       -2.4821921830
 H          1.6247116139       -2.8084588084       -2.5937329067
 O          1.8201985060        3.6323084730        2.2332536081
 H          1.1654592467        3.5646228037        2.9691469503
 H          1.4233399421        4.2082595706        1.5601930944
 O         -1.6833119496        4.0006921762        0.9465657771
 H         -1.8443272454        3.6821508425        0.0343214585
 H         -1.6368265222        3.1981602566        1.5097272038
 O         -1.7783877236        1.6465507383        2.3440798245
 H         -1.8840236870        1.0762745064        1.5583422844
 H         -2.6874244004        1.8520290833        2.6698659158
 O         -4.1499792170        1.4273455535       -0.7027497520
 H         -4.4681228200        0.7085340543       -0.1280741282
 H         -4.6601207111        1.4194313605       -1.5433065970
 O          0.1748200077       -0.3961980126       -3.8105093046
 H          0.4910316047        0.1432303112       -4.5519940368
 H         -0.6600627278        0.0320840988       -3.5005844512
 O          3.6452669132        1.9336346250       -0.2406639324
 H          3.0737187088        2.5713599655       -0.7147066374
 H          4.0011630339        2.4221712248        0.5272829697
 O          0.1837431265        2.3664768693       -2.4557560200
 H         -0.6599472656        2.6397664467       -2.0436197546
 H         -0.0208441949        2.2872187888       -3.4024064864
 O         -2.2141901752        3.0813233057       -1.4649222730
 H         -2.6052790556        3.2406449291       -2.3473601043
 H         -2.7754338324        2.3722918137       -1.0952732553
 O         -3.6357001085       -1.6379389730        4.6184300413
 H         -3.6446973840       -2.6017477723        4.4507709461
 H         -2.7866909351       -1.3864452228        5.0057834786
 O         -2.8522974350       -1.2372959923        2.0692290801
 H         -2.6160000363       -2.1202061156        1.7496862781
 H         -3.1468896629       -1.3444163280        2.9956311502
 O         -1.8521475431       -3.7054819190        1.1714383813
 H         -2.5546933374       -4.0681742530        0.5991672740
 H         -1.0160735105       -3.8501715262        0.6934511247
 O          0.5865007826       -4.0227768106       -0.0972719393
 H          0.8057543504       -3.2707556223       -0.6882162557
 H          1.3014398759       -4.0778933218        0.5466421548
 O          4.1546826818       -3.0264316797       -1.1843556637
 H          4.1507321334       -2.2274779385       -0.5966341620
 H          3.9579014560       -2.6687110386       -2.0825372642
 O          2.3921597632        1.0039438305        2.5078967935
 H          2.1978627038        1.9324377478        2.2941445115
 H          1.9641110910        0.8541898120        3.3771838870
 O         -1.1755319134       -0.3728485207        4.3242791255
 H         -1.4314473565        0.2054904260        3.5869185105
 H         -0.9067456622       -1.2317442536        3.9412563250
 O         -0.3688882782       -2.7591678742        3.3069960858
 H          0.3791599962       -2.3710943631        2.7966408882
 H         -0.9583803741       -3.1686217768        2.6613058304
 O          3.1341935359       -3.9736727383        1.2586689074
 H          3.4750417934       -3.8001881271        0.3667002068
 H          3.9004165544       -3.8031910091        1.8340837064
 O         -3.6422529204       -1.7207452971       -0.6411719089
 H         -4.1304299084       -2.2126238711        0.0518516119
 H         -2.9887418913       -2.3306463280       -1.0206997611
 O          4.2814756413       -1.0833743304        0.5467736211
 H          4.6475849081       -1.6101775024        1.2840164570
 H          4.8655305637       -0.3176027575        0.4368449301
 O          3.8397713070       -1.8792823539       -3.5646818369
 H          4.7385419318       -1.5788367675       -3.7570317220
 H          3.3556574803       -1.0762165350       -3.2462097834
 O         -2.1493471573        0.4374957821       -2.9044605520
 H         -2.2465846890        0.3584448851       -1.9458479228
 H         -2.7204179686       -0.2328709218       -3.3451102175
 O          2.5665803037        0.2470961294       -2.6396191664
 H          1.6659297991        0.1901975811       -2.9988010732
 H          2.9254787362        1.0861894480       -2.9680700912
 O         -1.6430119885       -3.2102914589       -1.8617588120
 H         -1.1726193288       -3.9247700022       -1.4284555854
 H         -1.1807987321       -3.0493509593       -2.7207878675
 O         -5.6392520492       -1.2533123577       -2.3078686301
 H         -6.3527682490       -1.0547627455       -1.6552242791
 H         -4.8273368549       -1.3261306785       -1.7478609128
 O         -5.0847669896       -0.0793536157        1.2789744080
 H         -4.2540103299       -0.5665930642        1.4832356731
 H         -5.4217966094        0.1755584350        2.1552779026
 O          1.9713350111       -3.8324692496       -3.9613379911
 H          2.2347781864       -4.5787943642       -3.3855629610
 H          2.7690859039       -3.3222839389       -4.1596776054
 O         -7.2182435616       -0.6081985059       -0.3267504644
 H         -6.5012779963       -0.4678617983        0.3281047512
 H         -7.6000680895        0.2673413046       -0.4781429630
 O          5.3908481000        1.4735652236       -2.3044902231
 H          6.3231393637        1.7090383331       -2.1155103821
 H          4.8894046227        1.5118042141       -1.4648151611
 O          6.1754975144        0.8720480760        0.6266851021
 H          6.9656697985        0.3472736142        0.3995569257
 H          6.3906401427        1.7961490864        0.3926643222
 O          4.4448931867        3.5492219098        1.8318665741
 H          4.8033982077        2.9070255045        2.4659832379
 H          3.5315073154        3.7234493594        2.1287652031
 O         -5.6218647739        0.0972756396        3.9799298150
 H         -4.9220042619       -0.4707462104        4.3468613515
 H         -6.3915629019       -0.4771666050        3.8954632742
 O         -5.2012032981       -2.9035796896        1.3240420374
 H         -5.7115615719       -2.2706438112        1.8580318718
 H         -5.8972110943       -3.3362527426        0.7869841552
 O         -4.2105076645        2.3144849603        3.1130169727
 H         -4.6704925233        1.6521400209        3.6442439246
 H         -4.7888639099        2.5024064137        2.3519386269
 O         -5.7307140959        2.8688492747        0.8841846355
 H         -5.4173172341        3.7910219242        0.8808682517
 H         -5.1009067481        2.4105301650        0.2761862893
 O         -7.3326367838       -1.5149329018        2.5112607277
 H         -7.5982379623       -0.6419702182        2.1690283816
 H         -7.9916539306       -2.1443932860        2.2151017256
 O          6.7901026575       -2.5399762503       -1.5198333821
 H          6.7251991115       -1.9839740747       -2.3199235106
 H          5.8718493461       -2.8509868980       -1.3724687112
 O          5.3044893468       -2.7984507748        2.3642174005
 H          5.4440502853       -2.2767490605        3.1734663837
 H          6.1850840579       -2.9566360775        1.9759069351
 O         -3.3497021967        2.7060396600       -3.8599381784
 H         -2.8293258378        1.8906998414       -3.7161884991
 H         -4.2651850504        2.4095403128       -3.7575254930
 O         -3.6620481244       -1.2679483498       -4.2340948766
 H         -3.4798326124       -2.2259622158       -4.2230579532
 H         -4.5681907898       -1.1742710213       -3.9249943429
 O         -3.2883343379       -3.9521091793       -3.9035808137
 H         -2.8731583038       -3.8589226652       -3.0255915624
 H         -2.5535481796       -4.0549559475       -4.5149809156
 O          2.1609753654        3.7978629520       -1.5131524029
 H          1.4357438010        3.2599929338       -1.9210096615
 H          1.6915956309        4.3742536702       -0.8891865203
 O          4.7375402141        4.7757792478       -0.6444568962
 H          4.5356609211        4.6441248335        0.2931193707
 H          3.9297926188        4.5637503490       -1.1262915074
 O         -0.7032110611        2.1136933444       -4.9972968774
 H         -0.0838357758        2.1099131351       -5.7308307562
 H         -1.5054808172        2.5778794894       -5.2484030044
 O         -4.1705612891        5.0773587890        0.9683909358
 H         -4.3051040136        5.5253704537        1.8030995323
 H         -3.2593176763        4.7139961653        1.0091445255
 O          4.9671666147        1.1207660207        3.0106898198
 H          3.9970921263        0.9969072709        2.8221453706
 H          5.4282309387        0.9577068873        2.1644526404
 O         -5.5676690598       -3.9474446816       -2.3313283371
 H         -5.6412358857       -2.9755292958       -2.4397859198
 H         -5.0749076207       -4.2517520622       -3.1018317793
 O          6.3169571449       -0.7191306032       -3.4760230633
 H          5.9115826882        0.0593094912       -3.0198725834
 H          7.0801964123       -0.3763118523       -3.9421786392
 O         -5.6294840196        1.3985905179       -2.9278201469
 H         -5.7474275909        0.4335129611       -2.9466389909
 H         -6.4012988590        1.7657196284       -2.4610696923
 O         -7.5310526961        2.1072951437       -1.1021694925
 H         -8.2022858795        2.7437547766       -1.3463373613
 H         -6.9276498447        2.5661814630       -0.4858665828
 O         -7.7007047884        1.1874146521        1.9798632384
 H         -7.0272158778        1.7698556249        1.5936293520
 H         -7.9450144301        1.5760969178        2.8200940225
 O         -3.7878085046       -4.7443535368       -0.4371352177
 H         -4.2365748078       -5.4376718762        0.0463039365
 H         -4.4322293532       -4.4269126272       -1.1053868803
 O         -0.6030576747       -2.9641794563       -4.2801761240
 H         -0.4133656553       -2.0107534971       -4.3491093144
 H          0.2574304073       -3.4067684592       -4.3483938056
 O          3.4533550203        2.6002367551       -3.7718725978
 H          4.3220639312        2.3602578824       -3.3945559428
 H          3.0902434589        3.2872729247       -3.2015272157
 O          6.9420729754        3.3856824257       -0.0466928478
 H          6.1894226458        3.8828413329       -0.4369532803
 H          7.2159806756        3.8967905342        0.7158073133
 O         -7.3238387922       -3.4711199506       -0.1796461790
 H         -7.5381928266       -2.5390709304       -0.3267540590
 H         -7.0090128834       -3.8246111747       -1.0203372153
 O          5.4989823143       -1.0192769956        4.3782645229
 H          6.0987929214       -0.8128154500        5.0924204906
 H          5.3236330955       -0.1592540550        3.8969179272
 O          7.6267946469       -3.1965879142        1.0141035063
 H          7.9736583227       -4.0837534976        1.1003041527
 H          7.3682278824       -3.0900987843        0.0823452724
 O         -3.7296055041       -4.0133547062        3.3604065246
 H         -2.9351970288       -4.3162880740        2.9130322689
 H         -4.3328766491       -3.7181032031        2.6519807824
 O          1.2162511755        0.6532051245        4.9008877491
 H          1.7986205518       -0.0889321716        5.1166685516
 H          0.3185416556        0.2629224302        4.8138381013
 O          2.5777057005       -5.2998991228       -1.8205020763
 H          3.2680782888       -4.6868970995       -1.5312138049
 H          1.8292382834       -5.1821022216       -1.2215245731
 O          8.2450763817       -0.6067075216       -0.2388583337
 H          8.7289923255       -1.0914275569        0.4332362696
 H          7.7435422392       -1.2803720733       -0.7414207284
 O          8.0311719944        1.6736785273       -1.9108260890
 H          8.3192812318        0.9087954327       -1.3942137953
 H          8.0353003563        2.4302857669       -1.3099406346
 O          2.8189229961       -1.5353597284        4.5380351013
 H          2.6073768658       -2.4763236288        4.6788182468
 H          3.7823411278       -1.4359311668        4.6002145404
 O          0.0196053449        3.0459863647        4.0555375882
 H          0.4572750119        2.3885329399        4.6125126737
 H         -0.6722670256        2.5692963500        3.5761203246
 O         -5.2715044301        4.1234485337       -1.6047532785
 H         -4.8079505757        4.6902604997       -0.9797814424
 H         -4.7801948909        4.1482842095       -2.4277417568
 O          1.8854447724       -4.0690408874        4.2801675209
 H          0.9679129920       -3.7798132537        4.1415121514
 H          2.1486866801       -4.5542542369        3.4953664473
 O          1.8412624688        1.1032201476       -5.4966460854
 H          2.4693489425        0.5070729952       -5.9060247008
 H          2.3668856996        1.7328122032       -4.9746385337
