  93

 H         -1.2147627420        2.1582961712        0.0059917428
 C         -0.7497123353        1.2086790808       -0.2730607970
 C          1.5561248626        0.0820360391       -0.3033030322
 C         -1.2506098982       -1.2596003491       -0.2610334262
 C         -1.5917880867        0.0628886270        0.3021873687
 C          0.6953774587        1.2288230416        0.2239549911
 H          1.4431041010        0.0101432140       -1.3879885018
 H         -1.1348201281       -1.3611587791       -1.3223401933
 H         -1.4875821707        0.0443049993        1.3900719417
 H          0.7015204623        1.2030004575        1.3163609925
 H         -0.7547515445        1.1430932295       -1.3629589118
 H          2.6161980483        0.3110048787       -0.0907958824
 H         -1.4493165086       -2.1474505691        0.3053381167
 H         -2.6497055928        0.3039878763        0.0932404072
 H          1.1579246463        2.1681460401       -0.0891256112
 N          1.1406860583       -1.1839718815        0.2660058413
 H          1.2342263884       -1.1829176253        1.2745807280
 H          1.6617821492       -1.9608273212       -0.1198552003
 O          1.7702022394       -3.2133786640        2.7047478284
 H          0.8268883319       -3.1078963772        2.8871978447
 H          1.8424731149       -3.6900538752        1.8575432047
 O          4.4974347087       -1.7700751498        0.4190327157
 H          4.7968699889       -2.5998090956        0.7936582660
 H          3.9732739760       -2.0029988389       -0.3787540937
 O          2.0035266068       -4.3006834370        0.1604229574
 H          2.5798891394       -3.8671561036       -0.4850089530
 H          1.1869377967       -4.4424837784       -0.3380494884
 O          3.1241877623       -0.8975322000        2.6302822173
 H          2.7394244319       -1.7807354454        2.8234427377
 H          3.6487263567       -1.0592835566        1.8250030508
 O          3.3337646178        1.2253461789       -2.7361642152
 H          3.0536153936        1.9189473148       -2.1165283594
 H          4.1248017767        0.8664303031       -2.3047566509
 O          3.2021826129       -2.6111584093       -1.7614383731
 H          2.6197408163       -2.0267182663       -2.3176691403
 H          3.8358137999       -2.9757987385       -2.3784693779
 O         -0.7963377936       -1.8786833094        2.9234524878
 H         -0.7050526344       -1.8070348683        1.9647985883
 H         -0.2723673758       -1.1418249320        3.2851906528
 O          0.9036843138        0.1777047322        3.6561694271
 H          1.7450280532       -0.0954509537        3.2267970164
 H          1.0743187415        0.1549501028        4.5982960427
 O          3.2466630825        3.1927364406       -0.7597459269
 H          4.1199960359        3.4989648862       -1.0069980409
 H          3.3695915653        2.6844677633        0.0657289838
 O          5.2110164101        0.7021444900       -0.6987394483
 H          4.9746851297        1.2317509698        0.0727928388
 H          5.1848981618       -0.2098272800       -0.3818000196
 O          2.1443269293        3.6363116475        2.7127488171
 H          1.7985796145        4.2164941418        2.0271466384
 H          1.3625762328        3.2718874889        3.1460387736
 O         -0.4715187214        2.5545459119        3.1971721128
 H         -0.0597845837        1.6844351583        3.3216459748
 H         -1.4052182035        2.3715435570        2.9772733833
 O          3.8202731034        1.8627265558        1.5765388885
 H          3.6327113158        1.0190937120        2.0028948379
 H          3.3198550364        2.5294586645        2.0907935153
 O          1.8915584732       -1.0837268328       -3.4338830396
 H          0.9562382509       -0.8205285436       -3.5149420273
 H          2.3926638574       -0.2520388031       -3.3662834485
 O         -3.0295757505        2.0406919764        2.4398668877
 H         -3.1040776682        1.0769671684        2.6749921964
 H         -3.7109728629        2.4784852694        2.9488979328
 O         -3.3108267321       -0.4989556694        3.0808721090
 H         -2.5678276065       -1.1254455687        3.0652268206
 H         -3.9094593384       -0.7273186121        2.3535710877
 O         -4.9337552372       -0.3068753053        0.7561815363
 H         -4.8853606245       -0.8611954933       -0.0250522142
 H         -4.8695413411        0.6073218968        0.4504990950
 O         -3.9530690881        2.3358576778       -0.1802804155
 H         -3.5519533100        2.2815800208        0.7062253894
 H         -3.4773190180        3.0507435408       -0.6342612702
 O         -0.6195873708       -0.0017021573       -3.5976298008
 H         -1.5151626508        0.1143198391       -3.2580763317
 H         -0.2547266625        0.9003349910       -3.6528154635
 O          0.5964684013        2.4493702909       -3.4369529385
 H          1.5189999873        2.2052993742       -3.5523196068
 H          0.5761260027        3.1055407937       -2.7198516073
 O          0.7363953214        4.2975364901       -1.3529594333
 H          1.6775464571        4.1056789775       -1.2350148160
 H          0.3836417818        4.3520129034       -0.4467156203
 O         -0.2428429289        4.4164688020        1.2065233908
 H         -0.3261787632        3.6956804420        1.8624766232
 H         -1.1060641030        4.8266560717        1.1458874707
 O         -2.1653128449        3.7959686487       -1.7692119417
 H         -1.2752306044        4.1632129853       -1.7279479697
 H         -2.0988030229        3.0390379848       -2.3639277212
 O          0.2945911020       -3.6167649403       -1.9047231404
 H          0.5741794417       -3.3170698042       -2.7725927812
 H          0.0256095554       -2.8245343322       -1.4237758965
 O         -3.1257081876        1.0855057230       -2.5802635705
 H         -3.4158306073        1.3843938980       -1.7015521298
 H         -3.8176349704        1.3326715439       -3.1934477336
