  192

 H         -0.5425054112       -1.1597996584        0.9180873596
 C         -0.6112510051       -0.5412956740        0.0100749177
 H         -0.5391308395       -1.1969144471       -0.8712436608
 C          0.5103658647        0.5037878334       -0.0094871837
 H          0.3911098457        1.1518924076        0.8600966284
 H          0.3944399221        1.1152669957       -0.9056411635
 O         -1.7891825170        0.2100258094       -0.0077307049
 H         -2.5646581757       -0.3620747641        0.0026734594
 N          1.8637421186       -0.1172780949        0.0059475227
 H          1.9871272141       -0.7237037741       -0.8163106232
 H          1.9839787967       -0.6890763206        0.8531041591
 H          2.5930828884        0.6072400317       -0.0077051386
 O          2.4335963867        0.9194699776       -2.4554292163
 H          2.6277589882        1.8282000769       -2.1877752466
 H          1.6838354944        0.9700979246       -3.0764548343
 O          1.6079195630       -1.0114073275        2.6020448522
 H          2.4717483609       -0.6053542112        2.8160718760
 H          0.9501222181       -0.3657245821        2.9123099557
 O          1.8656006593       -1.8814005374       -1.9641838669
 H          2.7088792175       -2.2294782085       -2.3230598160
 H          1.3228660888       -1.6070418328       -2.7180602912
 O          0.1826619947        1.1780815112       -3.9098314431
 H         -0.0010998483        0.2354157036       -4.0488002957
 H         -0.5213202836        1.4808500100       -3.3061596461
 O         -1.6710724613        1.9003351429       -2.0527533729
 H         -1.7861313528        2.7608781490       -1.6097141184
 H         -1.6821284930        1.2430238532       -1.3248755064
 O         -3.5167129613       -1.7846254291        0.2201593209
 H         -4.1562762472       -1.6307505452        0.9469358763
 H         -3.0797036261       -2.6390210706        0.4346289009
 O          0.2263298555        1.1878222959        3.4896882439
 H         -0.4017352180        1.6527702755        2.9060549417
 H          0.9939996551        1.7749309950        3.5902207756
 O         -1.4929318546        2.4222875105        1.7274728496
 H         -1.7844376138        1.5594194526        1.3805925069
 H         -2.2384327690        2.7976959348        2.2260424131
 O         -2.0941000918        4.0084391576       -0.3753681534
 H         -3.0485711822        4.0960716436       -0.2344161537
 H         -1.7715572285        3.4739596490        0.3840122848
 O          2.9623828119        3.6475126385        1.0688382829
 H          3.4162621327        2.8142867342        0.7931473415
 H          2.1232918065        3.6548847018        0.5682141998
 O         -4.3537077667        1.1645712138        1.1540856224
 H         -4.7435549059        0.6510373541        0.4152935518
 H         -3.6572347846        0.6140229529        1.5823565276
 O         -2.5675349374       -0.0370912920        2.6324625656
 H         -2.7809965036        0.4416461441        3.4468217830
 H         -2.5165731295       -0.9819216183        2.8858537873
 O          2.4733786778        2.7864080754        3.5089697759
 H          2.6162174873        3.1806781071        2.6056666685
 H          2.7989080346        3.4242213371        4.1432118387
 O          5.5200924845       -1.2609843532       -0.9319328263
 H          5.3727492101       -0.3895137620       -1.3449723086
 H          4.7700006918       -1.4001170198       -0.2918821220
 O         -5.3761400899        0.1064331398       -1.0223984046
 H         -5.5087085052       -0.8451800264       -1.1424451407
 H         -4.7978072190        0.3967955948       -1.7680967603
 O          4.0922557984        1.3451906523        0.4425334548
 H          5.0294958807        1.5365976539        0.2390708692
 H          4.0848630858        0.9419536922        1.3415858566
 O         -2.6934174634       -4.2426811108        0.7703285886
 H         -3.4037561752       -4.3439974364        1.4410364557
 H         -1.8619156574       -4.2866825211        1.2643557092
 O         -0.2899995514       -3.7430817886        2.0938004398
 H          0.0724247413       -3.5828316014        1.1987747829
 H          0.4586530003       -4.0100659542        2.6370175687
 O          0.5701951466       -3.5977396787       -0.4344416730
 H          1.0559156168       -2.9692824780       -1.0120850551
 H         -0.2104434199       -3.8729154437       -0.9517310269
 O          3.6778493124       -1.8266453119        0.8069167882
 H          4.1220625532       -1.8992247349        1.6743646770
 H          3.3974924755       -2.7397949148        0.5959464729
 O         -1.7218116693       -4.0002776109       -1.8135345065
 H         -2.2386241966       -4.3027941468       -1.0523507610
 H         -2.1411669301       -3.1867323530       -2.1230804552
 O          3.8039813920        0.4434350821        2.9193260766
 H          4.7202334703        0.2707909143        3.2282506535
 H          3.5079739313        1.2808001910        3.3128697813
 O         -3.9340002196        0.9744861621       -3.0607588115
 H         -4.4793206855        1.7850313767       -3.1152620746
 H         -3.0533428952        1.3160394259       -2.7940309999
 O         -3.0558442610       -1.6810723371       -2.9419343406
 H         -3.3493259685       -0.7739033241       -3.1158964104
 H         -3.8634652065       -2.2062512819       -2.9109779977
 O         -5.3337593385       -2.6527273769       -1.5187457576
 H         -4.5581509676       -2.4011866878       -0.9657582822
 H         -5.8036857479       -3.2977437509       -0.9532014642
 O         -0.3392659247       -1.4998008255       -3.6756573555
 H         -0.0901561519       -2.4338576219       -3.8256422810
 H         -1.2841488001       -1.5231993053       -3.4716538876
 O         -7.7526320256       -1.3216581806        0.7584027353
 H         -8.0144976245       -0.4561283675        1.1149311602
 H         -7.7975526504       -1.2437675591       -0.2124302366
 O          5.0625003705        0.9934467243       -2.4123072636
 H          4.8939532931        1.8891342816       -2.0859851431
 H          4.1709111640        0.6969986139       -2.6817626829
 O          7.2969209100       -0.6118987725        0.9769572055
 H          8.1671734743       -0.6886384689        0.5476146410
 H          6.6654926673       -0.9852344378        0.3239828218
 O          6.7133184040        1.8668871376        0.2147425148
 H          7.0122424469        0.9955761422        0.5668086157
 H          7.1766262875        1.9655227632       -0.6273676824
 O          4.2730395865       -2.7772761466       -2.7588368832
 H          4.8762920335       -2.2296102654       -2.2135985472
 H          4.2186504292       -2.4059676772       -3.6449406257
 O         -4.7242826075        3.6345195594        0.3871753200
 H         -5.7114918047        3.6743070651        0.4466080275
 H         -4.5339361178        2.6836676914        0.5545828645
 O          4.9935660946       -2.5100220202        3.0642474016
 H          5.5089882227       -3.0818635133        2.4656556447
 H          5.6021058368       -1.8722600897        3.4492684639
 O         -5.4426128369       -1.5070945785        2.0549681499
 H         -6.2806836366       -1.4822613636        1.5414131103
 H         -5.5221020670       -0.7955796882        2.7129523540
 O         -2.1953190145       -2.4998084357        3.5968373492
 H         -1.7401795214       -2.0482464781        4.3283003699
 H         -1.4950157693       -2.9353514334        3.0786834700
 O         -5.7713569606        0.8573775693        3.3672131740
 H         -5.1965174080        1.1021572700        4.1010009018
 H         -5.2877060385        1.1379833325        2.5537798257
 O         -8.1009951767        1.0966690163        2.0638030595
 H         -7.3328858291        1.0196516888        2.6645735110
 H         -8.8798778799        1.1805798625        2.6131440822
 O         -3.5615052006        3.8825699879        2.7988174970
 H         -3.3959226622        4.8021327380        3.0051084047
 H         -4.0951302806        3.8752587685        1.9675826293
 O         -4.4705543672       -3.9250713726        2.7413180783
 H         -4.9004565604       -3.0656816683        2.5643010262
 H         -3.7646701869       -3.7019908127        3.3629401598
 O          2.9170754696       -4.4147955896        0.5957928861
 H          2.7439340883       -4.3597411415        1.5572983014
 H          2.0417774649       -4.2960679051        0.1816128754
 O          5.7634709067       -3.9168996416        0.8416142270
 H          5.9723282366       -3.3979475919        0.0608264266
 H          4.9257068124       -4.3619418284        0.6613649334
 O         -7.3230050873        3.2446655757        0.4518841376
 H         -7.6110385892        2.5771430634        1.0940631948
 H         -7.5095130231        2.8401801796       -0.4116890390
 O         -6.5651441166       -3.9847285326        0.4634197916
 H         -6.0361584974       -4.2819690076        1.2103605761
 H         -7.1879032965       -3.3291614474        0.7979728056
 O          0.8113489275        3.5165869363       -0.5419012436
 H          0.9747827473        3.5802157298       -1.5059587572
 H          0.0459547963        4.0666873285       -0.3694681832
 O          6.3763639165        0.0514781805        3.4543022915
 H          6.8059105392       -0.2182690415        2.6213995697
 H          6.5459987078        0.9955936892        3.5449835622
 O          2.3661867568       -3.5787372057        3.1133273783
 H          2.0290933555       -2.6766173970        2.9459706027
 H          3.2694653463       -3.4449865545        3.4265093800
 O         -3.4300287469        1.7544516435        4.5700087104
 H         -2.8177185449        1.9017701998        5.2910163536
 H         -3.5021283260        2.5794767014        4.0611580236
 O         -7.4433044155        1.6445735214       -1.7764230958
 H         -8.1050716868        1.0913519002       -2.1931692963
 H         -6.7571312832        1.0237035887       -1.4448250931
 O         -5.2463485412        3.2332072446       -2.4477662611
 H         -6.1534689884        2.8967512857       -2.4050340190
 H         -5.0314272537        3.5032522907       -1.5433196037
 O         -7.7639539501       -1.3944480745       -1.9920861548
 H         -6.9375005286       -1.9039683984       -2.0582898261
 H         -8.4627829525       -1.9690296296       -2.3052285863
 O          7.7284960620        1.3623151459       -2.3532437435
 H          6.8097482439        1.0975033625       -2.5442686188
 H          8.0120009618        1.9255720341       -3.0728882633
 O          5.6949406447        2.7610131978        2.6389312571
 H          6.1955839859        2.6097851406        1.8234006233
 H          5.1228749663        3.5074297654        2.4523844533
 O          1.1549852227        3.7615231982       -3.2089308362
 H          0.9523838552        2.9585824833       -3.7077601261
 H          0.3565590609        4.3135996549       -3.2806848047
 O          3.6481123068        3.4234082139       -1.8800928951
 H          3.5657909865        3.8616398442       -1.0262565545
 H          3.0279812506        3.8557711516       -2.4804916118
 O          0.4565160124       -4.0726850542       -3.7139945943
 H          1.2180287216       -4.4569516112       -3.2348828669
 H         -0.3259845033       -4.4326653031       -3.2816844680
 O          9.2063587220       -0.4982429116       -0.8883137971
 H          9.4931536638       -1.2059822328       -1.4651183689
 H          8.7813403702        0.1711797587       -1.4486391763
 O          2.6416917213       -4.9714407546       -2.3716128244
 H          2.7773838865       -5.2475395650       -1.4622282734
 H          3.3443240211       -4.3348310735       -2.5686343448
 O          2.4573781444       -2.1067011635       -4.7686265855
 H          1.9399683057       -2.9165864080       -4.6885781541
 H          1.9652113920       -1.5240857418       -5.3480559038
 O         -0.7302490735       -0.7885911788        5.1656033449
 H          0.0672857498       -1.1160987039        5.5820454027
 H         -0.4611246151       -0.0472625827        4.5954211256
 O         -1.3296958560        4.8663899183       -2.9413059579
 H         -2.0865384305        4.6519593435       -3.4887059809
 H         -1.6305509715        4.8203661802       -2.0236995626
