  102

 H         -0.5425054112       -1.1597996585        0.9180873603
 C         -0.6112510051       -0.5412956740        0.0100749183
 H         -0.5391308395       -1.1969144470       -0.8712436601
 C          0.5103658647        0.5037878336       -0.0094871839
 H          0.3911098457        1.1518924073        0.8600966290
 H          0.3944399221        1.1152669956       -0.9056411629
 O         -1.7891825170        0.2100258093       -0.0077307040
 H         -2.5646581753       -0.3620747641        0.0026734602
 N          1.8637421187       -0.1172780949        0.0059475209
 H          1.9871272141       -0.7237037740       -0.8163106224
 H          1.9839787969       -0.6890763206        0.8531041602
 H          2.5930828886        0.6072400317       -0.0077051379
 O          3.4951536122        1.4810991730        1.5760424292
 H          3.8232451964        0.5987510273        1.8883256150
 H          4.2734682070        2.0312706803        1.4679992984
 O          5.0203433033       -0.1883936289       -2.0421283336
 H          5.1406848898        0.6745507996       -1.6055010888
 H          4.1808605845       -0.1340365832       -2.5220556901
 O          2.7223686497        2.3785860467       -1.0765161368
 H          2.2370258099        3.1541868098       -0.7602423365
 H          3.6606554779        2.5077212871       -0.8768107333
 O         -3.2849797922       -1.4436245011        2.2100656006
 H         -4.1334590378       -1.8697206259        2.3634156280
 H         -3.5082626588       -0.5125206476        2.0180948527
 O          1.6497090128       -1.6014441537        2.2734893086
 H          0.8874899759       -1.2876027629        2.7929265615
 H          1.3705817505       -2.4632429396        1.9176602972
 O         -0.7686378302       -0.8241166420        3.3196142898
 H         -1.0208718991        0.1091931712        3.3368735994
 H         -1.5860321644       -1.3031021670        3.1270868759
 O          1.8383995005       -2.5581418061       -1.1263462093
 H          1.2964480739       -2.6420170881       -1.9335342564
 H          1.3791454913       -3.0590738405       -0.4318003112
 O         -1.4176243335        1.7904402127        2.4453870141
 H         -1.5514789689        1.3212528188        1.6022467835
 H         -0.4724352368        1.9951509907        2.5243583915
 O          5.4503432794        2.1093021311       -0.5550574090
 H          5.8744558031        1.5399445299        0.1487712262
 H          6.1590887500        2.6408497200       -0.9187692093
 O         -2.0222384556       -3.3181150428        0.5433706163
 H         -2.4842456397       -2.6853221242        1.1188015125
 H         -2.0832621923       -2.9775618755       -0.3607094767
 O          4.3128246150       -0.9414414255        2.1554104298
 H          4.3960555611       -1.4275351057        1.2984827292
 H          3.5518177521       -1.3400002446        2.5970019697
 O         -4.0632373311        1.1925785709        1.8174106344
 H         -3.7283037736        1.6113448170        2.6140690683
 H         -3.7049626661        1.7301082148        1.0670634640
 O         -3.2491098411        2.8140234377       -0.1100129017
 H         -2.4578287514        2.5528833646       -0.6162857654
 H         -2.9441428083        3.5802461159        0.4271115197
 O         -1.1059229557        2.5021039943       -1.7846572670
 H         -1.2091265599        3.1925487844       -2.4419612243
 H         -1.5432365821        1.6988414693       -2.1426807902
 O          2.3901821447        0.2158731062       -2.6999911678
 H          1.5879361579        0.2181012045       -3.2345137484
 H          2.4553677981        1.0985204819       -2.3000972868
 O          0.6268770600        3.9096255212        0.0651721222
 H          0.8316844852        3.4176064288        0.8791090911
 H          0.0649990320        3.3526266004       -0.4890922433
 O          1.2407344261        2.5669720543        2.4137836576
 H          2.0899374812        2.1274357101        2.1618024428
 H          1.4460669495        3.1401355741        3.1540316216
 O          4.3827023974       -2.0749594174       -0.2346513852
 H          3.5593604468       -2.4631062584       -0.5650643613
 H          4.6442925504       -1.4115622770       -0.9084531908
 O         -4.2159767220       -1.0654060614       -0.5043922878
 H         -4.5748705383       -0.2351174647       -0.8772845973
 H         -4.8461881178       -1.3676399778        0.1737009245
 O         -4.9992083239        1.2982572433       -1.5369576841
 H         -5.8683975298        1.3365266630       -1.1212636034
 H         -4.4654507895        1.9737711943       -1.0807747674
 O          6.5345405741        0.5416543934        1.2218355013
 H          6.9652624963       -0.1214776659        0.6400558620
 H          5.9740451624        0.0270569894        1.8155778371
 O         -2.4353916519       -2.1554616294       -2.0414621505
 H         -2.6007812482       -2.8191468490       -2.7113088831
 H         -3.2753332173       -1.9566753751       -1.5748561376
 O         -2.5249925074        0.4699592648       -2.8694248750
 H         -2.4377508907       -0.4348656666       -2.5069652897
 H         -3.4314606609        0.7466373364       -2.6834458024
 O         -6.0755021979       -1.6445640269        1.3894152858
 H         -6.4406650768       -0.7466301487        1.2639388857
 H         -6.7864405978       -2.2630917048        1.2200498703
 O         -6.5681483215        0.9860739860        0.8583947367
 H         -7.1928718718        1.5377923240        1.3294700990
 H         -5.6889947206        1.1336051914        1.2696946353
 O         -0.0825114803        0.1622338919       -4.0291274602
 H         -0.9815482064        0.3299451738       -3.7007335344
 H         -0.0660657340        0.4366752046       -4.9452230344
 O          0.5432134384       -3.7435765598        0.9877671027
 H          0.6729690733       -4.6641868492        1.2149625501
 H         -0.4318527441       -3.6208386058        0.8660137614
 O          0.3603973283       -2.5057669282       -3.3813372022
 H          1.0023634117       -2.7926933946       -4.0317965106
 H          0.1680358795       -1.5733851606       -3.5777779151
 O         -1.8380108612        4.3987807158        1.4506377678
 H         -1.6839427340        3.6598092226        2.0593120369
 H         -0.9961783218        4.5753115255        1.0045708311
 O          7.1940821416       -1.3535076463       -0.5711669962
 H          6.7765083996       -1.0270518790       -1.3773347428
 H          6.6753871355       -2.1167784781       -0.2976637716
