  191

 H          0.4630927077        1.1941025327        0.8323452959
 C          0.5529035760        0.5095402429       -0.0251092077
 H          0.4633421181        1.0989800596       -0.9466436098
 C         -0.5779259332       -0.5149488604        0.0205351878
 H         -0.4518492548       -1.1270258235        0.9278134319
 H         -0.4840892691       -1.1748678654       -0.8448928489
 N         -1.8603253886        0.1647702477       -0.0623309411
 H         -2.6131021662       -0.5138473281       -0.0751527666
 H         -1.9956541838        0.7570092261        0.7508171931
 O          1.7808081026       -0.1833448059        0.0209869107
 H          2.5006908393        0.4507195083       -0.0567171280
 O         -0.7439595520       -0.4316158034       -4.3936791311
 H         -1.1753092660       -1.3090432426       -4.2427178354
 H         -1.0777889867        0.1302609195       -3.6534604210
 O          1.5710686001       -1.0036223185       -3.2983286456
 H          1.6711618233       -0.1715171677       -2.8062907279
 H          0.7671489077       -0.8490144775       -3.8463055753
 O          3.5737041892       -2.1667034903       -1.1355441010
 H          3.6055819023       -2.5904295492       -2.0210977760
 H          2.7969529701       -2.5204672550       -0.6791645148
 O          1.4178403861       -2.7710183458        0.5449104242
 H          0.8546059909       -2.9807923908       -0.2321904551
 H          1.5480351402       -1.8022498136        0.5181558838
 O          0.0664670873       -2.4693536658        2.9391501254
 H          0.5479241726       -2.7753492313        2.1524826008
 H          0.4350770781       -1.5937643633        3.1406145304
 O         -2.5019533696       -2.3666638192        2.1134692973
 H         -1.6180376695       -2.5206472641        2.5036196632
 H         -2.8024115515       -1.5230862314        2.5190719846
 O          0.4358263142       -2.9840588829       -1.9324555324
 H          0.8887612505       -2.2466971737       -2.4004987256
 H          0.9588520652       -3.7778659951       -2.1170438953
 O         -1.8514781280       -2.6671378251       -3.5278583021
 H         -1.1928278472       -2.9440932329       -2.8701201871
 H         -2.5777139582       -2.2658464559       -3.0158136745
 O          3.9245191501        0.3089579833       -2.0777046420
 H          3.6852349646       -0.5420762516       -1.6525758367
 H          3.6588476032        1.0322185974       -1.4863971253
 O         -3.7437844473       -1.0799364179       -2.4057215407
 H         -3.2226104384       -0.2553715614       -2.4541060145
 H         -3.9497938860       -1.2712322575       -1.4726432279
 O         -1.9957624354        0.9968573119       -2.5345071357
 H         -1.9159605675        1.9549954395       -2.6154471446
 H         -1.8545627699        0.8025157920       -1.5685451665
 O          3.8437907648        0.7079119299       -4.7526595855
 H          3.6473360122        0.5007669768       -3.8185095253
 H          3.0076418917        0.9645768570       -5.1641534423
 O         -2.1409869617       -3.3034883175       -0.4744397267
 H         -2.1648675182       -2.9832154812        0.4417721363
 H         -1.4494265198       -3.9801745953       -0.5026848261
 O         -3.9591812596        2.6567007422       -1.0367339842
 H         -4.6392185882        3.2683339834       -0.6925163656
 H         -4.1919363390        2.4357650020       -1.9639241850
 O         -0.7280961708        3.4362109287       -2.4157270319
 H         -0.0031267658        2.7776099244       -2.4825067598
 H         -0.4190232412        4.0992634470       -1.7908306497
 O         -3.5167997434       -0.0804937999        3.1098517476
 H         -3.8394893867        0.4930047309        2.3857164956
 H         -4.3284651152       -0.5100781140        3.4511330303
 O          1.2859753420        1.6858083976       -2.7739988868
 H          1.9938167193        2.1670391531       -2.3204044366
 H          1.3937691499        1.7448409731       -3.7484047152
 O         -1.9005118894        3.2493048399        0.5881638104
 H         -2.5311479982        3.0285287129       -0.1236552874
 H         -1.2518535348        3.8610928993        0.2093280962
 O          1.2129012805        0.0374997820        3.2926582802
 H          2.0561267820        0.5480549221        3.2657368510
 H          0.5583677792        0.6732297000        2.9550984935
 O         -0.4509133631        2.1377743606        2.5608591060
 H         -1.0207334046        2.4877863678        1.8518434979
 H         -1.0247356755        2.1249916231        3.3653796592
 O          2.9082205013        2.6232641834       -0.8607721412
 H          2.5547988245        2.8719007524        0.0095142710
 H          3.6686463568        3.1994959415       -1.0453191948
 O         -4.5200248712       -1.3964129368        0.1613070636
 H         -4.0458047416       -1.8999814282        0.8327475307
 H         -4.5658720536       -0.4485397764        0.4768410150
 O          3.6661766782       -2.0399473881        3.2028033530
 H          2.8386485590       -1.5567160982        3.2916802866
 H          3.4347122766       -2.9679432316        2.9784832153
 O          4.3554983584        0.8632333620        0.6088712229
 H          5.1402534939        1.4067068302        0.4146046676
 H          4.6860969888       -0.0469461835        0.7787082460
 O         -4.6100627576        1.0328831806        0.9572165369
 H         -4.3095686356        1.6251928309        0.2319553314
 H         -5.5885976805        1.1573678964        1.0281629774
 O         -7.1806021448        1.5646182822       -1.7915748585
 H         -6.7359905543        2.3192622889       -2.1824275684
 H         -6.9168406200        0.7829992333       -2.3188876695
 O         -7.2297173470        1.0545972981        0.8307194538
 H         -7.4606690415        0.1169799241        0.8616639189
 H         -7.3195105701        1.2994302493       -0.1152100740
 O          3.4073951121        1.5276933675        2.9831342064
 H          3.6929795938        1.2918985244        2.0692123629
 H          4.1372022618        1.1923803063        3.5357893972
 O          6.5914267651        2.1941283383       -0.1901279634
 H          6.7511097533        1.5950627381       -0.9500100093
 H          6.1887787399        2.9877508391       -0.5773359484
 O          6.5709446607        0.2906958486       -2.1219731691
 H          5.5848844188        0.2594067351       -2.0387054650
 H          6.9298056438       -0.3574181226       -1.4773687055
 O         -7.1098566476       -1.8023013962        0.7619557801
 H         -6.1629920348       -1.7155850955        0.5028101130
 H         -7.1766373398       -2.6429963789        1.2198136021
 O         -0.0328568488       -5.2111453497       -0.1418512031
 H          0.3167708206       -5.3818784425        0.7346877752
 H          0.6910723076       -5.3596512087       -0.7622421031
 O         -4.9801653576       -3.6786530938        1.9370880872
 H         -4.0504913830       -3.5612447398        2.1783832648
 H         -4.9810604465       -3.9253310259        0.9951125561
 O          1.8197474937        3.3379386060        1.6333493427
 H          2.5211465911        2.9866458437        2.2032830497
 H          1.0036448949        2.9718615589        2.0302566231
 O          5.0928584466       -1.6470223926        0.9787012185
 H          4.6155913984       -1.8542126915        1.8090206416
 H          4.5692461002       -2.0107268890        0.2382931579
 O         -6.1880373344       -0.5240856307       -3.2244534739
 H         -5.2803705564       -0.6798813073       -2.8704483190
 H         -6.6740135334       -1.3141537803       -2.9135569381
 O          3.4329628314       -2.9737101035       -3.6632571864
 H          4.2523918580       -2.5892927653       -4.0108468272
 H          2.7534828338       -2.2863611965       -3.7795208853
 O          5.6484345202       -1.3773072901       -4.1764769868
 H          6.1795658745       -0.8122871826       -3.5914898713
 H          5.0919984978       -0.7545805032       -4.6684760719
 O         -6.9164253062       -2.7337811866       -1.8888017703
 H         -7.2973236269       -2.3764779385       -1.0739048391
 H         -6.0982487324       -3.1775833792       -1.6152774893
 O         -4.6603173088       -4.1157982030       -0.8023852928
 H         -3.7349135481       -3.7696728807       -0.7956614249
 H         -4.6253002034       -4.9628766686       -1.2462811190
 O          5.7397979430        2.4228201908       -3.7994699194
 H          6.3186482156        1.7523310592       -3.4171420772
 H          5.0430432150        1.9237327249       -4.2706868075
 O          7.4476125216       -1.3555622685       -0.1943694109
 H          6.6293098967       -1.5413628208        0.3131883493
 H          7.9720516666       -0.8216094756        0.4127611200
 O          5.1277599395        3.9127560127       -1.7280937938
 H          5.3223547565        3.3784368073       -2.5466470110
 H          5.1502889058        4.8299909656       -1.9957845600
 O          0.2838737778        4.8286593702       -0.1304177705
 H          0.9099268227        4.3484968557        0.4382620628
 H          0.2226892609        5.7175034756        0.2200892096
 O         -4.6674866963        1.9904093542       -3.5363920814
 H         -3.9323886703        1.8030353098       -4.1512934198
 H         -5.2879974938        1.2649164848       -3.6625023608
 O         -2.8611418150        1.0801174253       -5.3790999019
 H         -2.0528955297        0.5781136341       -5.1851638756
 H         -3.5173053940        0.3794381854       -5.5588698580
 O         -5.7935516690       -1.4483345806        3.3943472321
 H         -5.5865728485       -2.3101896107        2.9927130866
 H         -6.5129988667       -1.0728607761        2.8784497488
 O          1.1657306110        1.4663670480       -5.4018402235
 H          0.6350726298        0.6594996849       -5.4154006195
 H          0.4936988648        2.1873077445       -5.4615022231
 O          5.5402042020        0.0877641357        3.7996261432
 H          6.2031653483        0.0886975551        3.0931944853
 H          5.0936627422       -0.7670713365        3.7639283102
 O          7.5763637790        0.6028881971        1.8377039742
 H          8.1587648338        1.0674319628        2.4391281886
 H          7.2481533612        1.2644364571        1.2048199029
 O         -0.8880123073        3.1267105983       -5.1451462498
 H         -0.9317368064        3.4121939051       -4.2181273972
 H         -1.6822518825        2.6004304734       -5.3050440145
 O         -5.7617567768        3.8284031279        0.5825157290
 H         -6.5176710822        3.2764515179        0.8006007377
 H         -5.1937709207        3.8296021354        1.3707738863
 O         -3.8219403035        3.5407880606        2.5869031531
 H         -3.4675945214        3.1623188545        3.3965579988
 H         -3.1050081338        3.5135276258        1.9333405947
 O         -2.1645056566        1.7924465212        4.5354165434
 H         -1.5871492656        1.2960239086        5.1408883539
 H         -2.7163475580        1.1053473125        4.1113207418
 O          3.1030234181       -4.3393161625        1.9556197578
 H          3.7937501024       -4.4920075863        1.2953675805
 H          2.3973879191       -3.8924160526        1.4591066670
 O         -0.3894444162       -0.0553407118        5.5421988285
 H          0.3126066901       -0.0043998131        4.8689679238
 H         -0.7091628925       -0.9589378466        5.5268822573
 O          4.6289567196       -4.6367505361       -0.3697781003
 H          5.1762916202       -5.4090943277       -0.2392599961
 H          5.1611227724       -4.0374939419       -0.9425513268
 O          6.2809522105       -3.2476426410       -1.9483401854
 H          6.8881096481       -2.6989132943       -1.4363910883
 H          6.0853457062       -2.7700401242       -2.7625834916
 O         -4.4209071261       -1.1260923192       -5.3209026253
 H         -3.8723964111       -1.7664961663       -4.8597447049
 H         -5.2055495054       -0.9861493402       -4.7680911819
 O          2.3600331102       -4.9537955973       -1.9155948359
 H          3.1011992216       -4.9043936318       -1.2827975425
 H          2.7339880676       -4.6495305202       -2.7524177272
