 xtb: 6.5.1 (579679a)
          10122203163D

 75 50  0     0  0            999 V2000
    0.7360   -4.4602    0.6577 o   0  0  0  0  0  0  0  0  0  0  0  0
   -0.0073   -3.8298    0.4894 h   0  0  0  0  0  0  0  0  0  0  0  0
    0.3390   -5.3098    0.8475 h   0  0  0  0  0  0  0  0  0  0  0  0
   -3.6364   -0.3811    2.1218 o   0  0  0  0  0  0  0  0  0  0  0  0
   -4.3603   -0.2324    2.7299 h   0  0  0  0  0  0  0  0  0  0  0  0
   -2.9843   -0.9837    2.5889 h   0  0  0  0  0  0  0  0  0  0  0  0
   -0.2709   -0.8841   -2.1154 o   0  0  0  0  0  0  0  0  0  0  0  0
   -0.3236   -0.1886   -1.4228 h   0  0  0  0  0  0  0  0  0  0  0  0
   -1.1999   -1.1965   -2.2677 h   0  0  0  0  0  0  0  0  0  0  0  0
   -2.7892   -1.4925   -2.5513 o   0  0  0  0  0  0  0  0  0  0  0  0
   -3.1646   -0.6079   -2.7454 h   0  0  0  0  0  0  0  0  0  0  0  0
   -3.1792   -1.7583   -1.7085 h   0  0  0  0  0  0  0  0  0  0  0  0
   -1.4362    2.1344   -3.9342 o   0  0  0  0  0  0  0  0  0  0  0  0
   -0.7394    1.5078   -4.1842 h   0  0  0  0  0  0  0  0  0  0  0  0
   -1.0584    2.6520   -3.2034 h   0  0  0  0  0  0  0  0  0  0  0  0
    1.5844   -2.7250   -1.5111 o   0  0  0  0  0  0  0  0  0  0  0  0
    1.2722   -3.4744   -0.9899 h   0  0  0  0  0  0  0  0  0  0  0  0
    0.8061   -2.1338   -1.6374 h   0  0  0  0  0  0  0  0  0  0  0  0
    0.2423   -0.9552    1.8197 o   0  0  0  0  0  0  0  0  0  0  0  0
    0.6406   -0.0959    2.0472 h   0  0  0  0  0  0  0  0  0  0  0  0
    0.9448   -1.6189    1.9959 h   0  0  0  0  0  0  0  0  0  0  0  0
    2.4132    0.8314    0.2098 o   0  0  0  0  0  0  0  0  0  0  0  0
    2.3796    1.1080    1.1409 h   0  0  0  0  0  0  0  0  0  0  0  0
    2.7378   -0.0924    0.2214 h   0  0  0  0  0  0  0  0  0  0  0  0
   -0.0708    3.0959    3.5930 o   0  0  0  0  0  0  0  0  0  0  0  0
    0.0588    3.9815    3.2541 h   0  0  0  0  0  0  0  0  0  0  0  0
   -0.7051    2.6566    2.9957 h   0  0  0  0  0  0  0  0  0  0  0  0
   -1.5058    1.4108    2.0230 o   0  0  0  0  0  0  0  0  0  0  0  0
   -1.0283    1.2677    1.1762 h   0  0  0  0  0  0  0  0  0  0  0  0
   -2.3452    0.9358    1.9273 h   0  0  0  0  0  0  0  0  0  0  0  0
   -3.7456   -2.1032    0.0450 o   0  0  0  0  0  0  0  0  0  0  0  0
   -3.7630   -1.3769    0.7020 h   0  0  0  0  0  0  0  0  0  0  0  0
   -4.4359   -2.7209    0.2874 h   0  0  0  0  0  0  0  0  0  0  0  0
    3.3846   -1.6830    0.0963 o   0  0  0  0  0  0  0  0  0  0  0  0
    2.7135   -2.0809   -0.5197 h   0  0  0  0  0  0  0  0  0  0  0  0
    4.2082   -1.6480   -0.3923 h   0  0  0  0  0  0  0  0  0  0  0  0
   -1.0081   -2.5994    0.0518 o   0  0  0  0  0  0  0  0  0  0  0  0
   -0.6521   -1.8264    0.5196 h   0  0  0  0  0  0  0  0  0  0  0  0
   -1.9712   -2.5098    0.0533 h   0  0  0  0  0  0  0  0  0  0  0  0
    2.1394   -2.7652    2.3022 o   0  0  0  0  0  0  0  0  0  0  0  0
    1.7273   -3.5141    1.8341 h   0  0  0  0  0  0  0  0  0  0  0  0
    2.8046   -2.4192    1.6856 h   0  0  0  0  0  0  0  0  0  0  0  0
   -0.1860    1.1020   -0.3199 o   0  0  0  0  0  0  0  0  0  0  0  0
   -0.2310    1.9192   -0.8472 h   0  0  0  0  0  0  0  0  0  0  0  0
    0.7727    0.9818   -0.1237 h   0  0  0  0  0  0  0  0  0  0  0  0
   -1.8259   -1.8498    3.2825 o   0  0  0  0  0  0  0  0  0  0  0  0
   -1.6350   -1.3884    4.1074 h   0  0  0  0  0  0  0  0  0  0  0  0
   -1.0682   -1.6106    2.6997 h   0  0  0  0  0  0  0  0  0  0  0  0
    3.8412    1.3702   -2.0844 o   0  0  0  0  0  0  0  0  0  0  0  0
    3.7186    0.4960   -2.4981 h   0  0  0  0  0  0  0  0  0  0  0  0
    3.4015    1.3157   -1.2204 h   0  0  0  0  0  0  0  0  0  0  0  0
    1.8450   -0.8537    4.5157 o   0  0  0  0  0  0  0  0  0  0  0  0
    1.9684   -1.6426    3.9728 h   0  0  0  0  0  0  0  0  0  0  0  0
    0.8895   -0.7142    4.6141 h   0  0  0  0  0  0  0  0  0  0  0  0
    1.9593    2.5944   -3.4950 o   0  0  0  0  0  0  0  0  0  0  0  0
    2.7433    2.2527   -2.9984 h   0  0  0  0  0  0  0  0  0  0  0  0
    1.6035    1.8335   -3.9699 h   0  0  0  0  0  0  0  0  0  0  0  0
    1.7578    1.1831    2.7762 o   0  0  0  0  0  0  0  0  0  0  0  0
    1.2430    1.9012    3.1784 h   0  0  0  0  0  0  0  0  0  0  0  0
    1.9960    0.5601    3.4939 h   0  0  0  0  0  0  0  0  0  0  0  0
    0.0326    3.3014   -1.9091 o   0  0  0  0  0  0  0  0  0  0  0  0
    0.8200    3.0623   -2.4839 h   0  0  0  0  0  0  0  0  0  0  0  0
    0.1018    4.2406   -1.7426 h   0  0  0  0  0  0  0  0  0  0  0  0
   -0.7278    0.3370    4.4878 o   0  0  0  0  0  0  0  0  0  0  0  0
   -0.9365    0.6560    3.5866 h   0  0  0  0  0  0  0  0  0  0  0  0
   -0.5071    1.1265    4.9859 h   0  0  0  0  0  0  0  0  0  0  0  0
   -3.6866    0.9930   -3.0789 o   0  0  0  0  0  0  0  0  0  0  0  0
   -2.8595    1.4470   -3.3670 h   0  0  0  0  0  0  0  0  0  0  0  0
   -4.3054    1.0962   -3.8021 h   0  0  0  0  0  0  0  0  0  0  0  0
    0.5957    0.1819   -4.3083 o   0  0  0  0  0  0  0  0  0  0  0  0
    0.2512   -0.2278   -3.4592 h   0  0  0  0  0  0  0  0  0  0  0  0
    0.2902   -0.3806   -5.0206 h   0  0  0  0  0  0  0  0  0  0  0  0
    2.9992   -0.9754   -3.2481 o   0  0  0  0  0  0  0  0  0  0  0  0
    2.2781   -0.5560   -3.7399 h   0  0  0  0  0  0  0  0  0  0  0  0
    2.5910   -1.6948   -2.7500 h   0  0  0  0  0  0  0  0  0  0  0  0
  1  2  1  0  0  0  0
  1  3  1  0  0  0  0
  4  5  1  0  0  0  0
  4  6  1  0  0  0  0
  7  8  1  0  0  0  0
  7  9  1  0  0  0  0
 10 11  1  0  0  0  0
 10 12  1  0  0  0  0
 13 14  1  0  0  0  0
 13 15  1  0  0  0  0
 16 17  1  0  0  0  0
 16 18  1  0  0  0  0
 19 20  1  0  0  0  0
 19 21  1  0  0  0  0
 22 23  1  0  0  0  0
 22 24  1  0  0  0  0
 25 26  1  0  0  0  0
 25 27  1  0  0  0  0
 28 29  1  0  0  0  0
 28 30  1  0  0  0  0
 31 32  1  0  0  0  0
 31 33  1  0  0  0  0
 34 35  1  0  0  0  0
 34 36  1  0  0  0  0
 37 38  1  0  0  0  0
 37 39  1  0  0  0  0
 40 41  1  0  0  0  0
 40 42  1  0  0  0  0
 43 44  1  0  0  0  0
 43 45  1  0  0  0  0
 46 47  1  0  0  0  0
 46 48  1  0  0  0  0
 49 50  1  0  0  0  0
 49 51  1  0  0  0  0
 52 53  1  0  0  0  0
 52 54  1  0  0  0  0
 55 56  1  0  0  0  0
 55 57  1  0  0  0  0
 58 59  1  0  0  0  0
 58 60  1  0  0  0  0
 61 62  1  0  0  0  0
 61 63  1  0  0  0  0
 64 65  1  0  0  0  0
 64 66  1  0  0  0  0
 67 68  1  0  0  0  0
 67 69  1  0  0  0  0
 70 71  1  0  0  0  0
 70 72  1  0  0  0  0
 73 74  1  0  0  0  0
 73 75  1  0  0  0  0
M  END
