  311

 H          0.4630927077        1.1941025324        0.8323452949
 C          0.5529035762        0.5095402421       -0.0251092079
 H          0.4633421181        1.0989800617       -0.9466436091
 C         -0.5779259332       -0.5149488602        0.0205351878
 H         -0.4518492550       -1.1270258238        0.9278134312
 H         -0.4840892694       -1.1748678660       -0.8448928486
 N         -1.8603253886        0.1647702476       -0.0623309418
 H         -2.6131021666       -0.5138473279       -0.0751527660
 H         -1.9956541841        0.7570092263        0.7508171933
 O          1.7808081027       -0.1833448056        0.0209869114
 H          2.5006908387        0.4507195087       -0.0567171277
 O          2.1707674358       -2.0025458571        1.9570194079
 H          2.9641033796       -2.4522868829        1.6119831975
 H          1.9968178932       -1.2792330537        1.3247393385
 O          3.0017615419        1.5178425678        2.7346669277
 H          2.8027495254        0.8423301411        3.4026145228
 H          3.4405714770        1.0471033820        2.0062809492
 O         -1.3823800722        1.1512858050       -2.4342857901
 H         -1.7373767669        0.8085148194       -1.5589000501
 H         -2.1342965523        1.3322355135       -3.0333058606
 O         -0.4098148541        4.5435501277        0.6225013653
 H          0.1237194915        5.3020914296        0.3259489886
 H         -0.6626043184        4.1127922785       -0.2268798541
 O          0.7956055744        2.9833603238        2.4679536065
 H          1.6216300078        2.4964244595        2.2833788807
 H          0.5318823167        3.4826119931        1.6700331643
 O         -1.9110706852        2.0886365736        2.1162498781
 H         -1.0792089133        2.4799450697        2.4022098271
 H         -2.4267829275        2.8117248728        1.7386691030
 O          2.3159250658       -0.7206932231        4.2427016320
 H          2.1587696752       -1.2011249071        3.3899084186
 H          1.5049989347       -0.2122727880        4.4051380319
 O          3.5967716155        4.6908890380        0.8445977599
 H          4.5199725211        4.5889592991        1.1548223023
 H          3.0895253139        5.0204208170        1.6202010192
 O          0.1160991489       -3.5104335929        1.1582900429
 H         -0.3577735300       -4.0057954330        1.8495784855
 H          0.7566110492       -2.9145840018        1.5977287635
 O         -1.6619013114       -3.5504590157       -0.7208680925
 H         -1.1948010893       -3.1168918867       -1.4526520775
 H         -1.0625038221       -3.4193660598        0.0511137456
 O          4.2640397155       -2.7530756879        0.4081464269
 H          3.8554515979       -2.4722758109       -0.4305784173
 H          4.9112094372       -3.4285454315        0.1390589486
 O          2.5679890201       -2.1386609301       -1.6751959104
 H          2.1195351024       -1.4575430765       -1.1455432324
 H          2.2407927578       -3.0043246434       -1.3610397775
 O          4.3817718207       -0.1938405071        1.2202263003
 H          5.1258673139        0.3959229252        0.9738555294
 H          4.5132222776       -1.0474237048        0.7650539863
 O         -0.3887262871       -1.4385370465        3.1075363288
 H         -1.3054972916       -1.6417953988        2.8453720127
 H         -0.3800462006       -0.5451872247        3.4740056671
 O         -3.4018140296        4.1115021922        0.6584612463
 H         -3.3807310492        3.4212815395       -0.0647267755
 H         -2.6066689039        4.6410112118        0.5608632277
 O         -2.9051806195        1.9873461904       -4.4302495210
 H         -2.2198513617        2.6363631824       -4.6878487284
 H         -3.6392536346        2.5109739776       -4.0701103741
 O         -4.7216986761       -0.3118953417       -2.4107848849
 H         -5.2284515569       -0.8323605630       -3.0599177015
 H         -3.8034388845       -0.5512339779       -2.6023867257
 O         -2.6443674435       -1.7900311352       -3.3037946022
 H         -3.2172029635       -2.5920007212       -3.2637698301
 H         -1.7613157521       -2.0647055596       -3.0083851832
 O          0.1439948575       -0.0229204549       -4.1311974017
 H         -0.5146370940       -0.3124993221       -4.8016702111
 H         -0.4073766819        0.4113887977       -3.4133750109
 O          2.4885166263       -1.4228080388       -4.2317249403
 H          2.5400792056       -1.7671835713       -3.3078207693
 H          1.6732941758       -0.8978753051       -4.2608934710
 O          2.8642816244        2.3104560324       -0.0231914545
 H          2.3454346176        2.5817277846       -0.7996738074
 H          3.1446518263        3.1550595597        0.3984655462
 O          4.8212423784        1.5665534591       -1.6262216117
 H          4.1626191497        1.8008358064       -0.9368971673
 H          4.3333580311        1.3545009707       -2.4424885813
 O         -3.8918488421       -2.1203505096       -0.1292771810
 H         -4.7122235299       -2.5078513975       -0.5050523428
 H         -3.1599808526       -2.6122745552       -0.5340886868
 O         -2.7768596567       -2.4440760684        2.3431152035
 H         -3.2771200283       -2.2735181090        1.5233567044
 H         -3.4180779835       -2.4403212098        3.0847032123
 O          6.3443011613        1.5172462865        1.0898381889
 H          6.9378369403        1.0965528669        1.7347732420
 H          6.8359871536        1.5811822471        0.2358554763
 O         -7.9150518918       -0.9867693674       -1.1333749983
 H         -7.7225411558       -1.2444481267       -0.2136881705
 H         -7.4661678406       -0.1167477068       -1.2754631436
 O         -4.0392468904        0.3629131471        2.6352511808
 H         -4.7467446641       -0.0773351551        3.1593832049
 H         -4.2712522976        1.3163695201        2.6382991777
 O         -5.0220552814        0.3293886461        0.2147411409
 H         -4.4649363928        0.2847080380        1.0232745740
 H         -4.6879439160       -0.3164968648       -0.4291455967
 O          5.9895912690        4.0068962698        1.8483681920
 H          6.0217913812        3.0662265252        1.5473346611
 H          5.5310521741        3.9626192979        2.7175895337
 O          7.6333949219       -0.2074087529        2.8194353435
 H          7.1190551877       -0.6572021463        3.4949472732
 H          7.4963897763       -0.7395241500        2.0052352213
 O         -3.5567633442        2.2433038028       -1.1133189224
 H         -4.0520333480        2.5551771377       -1.8953199301
 H         -4.1203918459        1.5913282997       -0.6633367274
 O         -6.7351871132       -1.3598970066        1.3492661132
 H         -6.0855814655       -0.7462521228        0.9333686355
 H         -6.2939028465       -2.2223217579        1.4512920076
 O          5.0158563152       -0.8729862213        3.6887360459
 H          4.1664775435       -0.8354301904        4.1475396964
 H          4.8081473463       -0.6163850619        2.7503812890
 O         -5.4904276773       -3.7227631258        1.9912319435
 H         -4.8212986504       -4.2421207519        1.5043052348
 H         -5.2034728815       -3.6733788893        2.9101032085
 O          4.4430941252        3.4613437321        3.9413979509
 H          5.0507179335        2.9178211077        4.4726013332
 H          3.8838890539        2.8012247375        3.4824966442
 O          3.3748197800        5.2075700254       -1.8084849890
 H          4.2228393771        4.9048007190       -2.2122619873
 H          3.5130661411        5.1375663130       -0.8434796382
 O         -4.9109685069        2.9194260110        2.6235952213
 H         -4.4226593671        3.1271582778        3.4651238851
 H         -4.4530545847        3.4584795311        1.9569524124
 O         -6.9602777975        2.5162478918        0.7196617947
 H         -6.2402494409        2.6104351178        1.3587616913
 H         -7.5792353308        1.8656797073        1.1213809627
 O         -6.7479575697        1.3105747363       -1.6850415799
 H         -6.6299207628        1.7380948267       -0.8144673412
 H         -5.8976562498        0.9200668698       -1.9559467517
 O          2.0722241327       -4.4488442808       -0.3742105734
 H          2.6063313581       -4.5971904006        0.4250382583
 H          1.1837848156       -4.2848546693       -0.0105909169
 O          1.8212905617        3.1884218952       -2.3471590136
 H          1.8860693867        2.9046844191       -3.2649898098
 H          2.3870004559        4.0012352363       -2.2429182043
 O          5.1250341926       -3.6125215839        3.2136223293
 H          5.1707078997       -2.6488016078        3.3453915698
 H          5.9370017350       -3.8532022790        2.7501004637
 O          3.9190912322        0.8434322652       -4.0548041846
 H          3.5398750957       -0.0583424131       -4.1364719670
 H          3.2552750980        1.4350404653       -4.4350797160
 O         -0.1088788776       -2.4053848319       -2.5977390095
 H          0.3855141925       -3.1953834624       -2.9235502529
 H          0.1719446434       -1.6490886393       -3.1322160363
 O          5.5987332743        3.9803909202       -2.6099067352
 H          5.3800704348        3.1111306094       -2.2146021446
 H          6.3013278813        4.3425988644       -2.0364053975
 O         -6.0960409613       -3.0613135987       -1.3015594011
 H         -6.6766103819       -2.3173733375       -1.5290076072
 H         -6.6608147007       -3.6506522965       -0.7475689205
 O          5.4203352877       -1.0763141598       -1.3806579857
 H          5.2997699826       -1.5825470203       -2.1996908498
 H          5.3256945798       -0.1292566538       -1.5696857622
 O         -1.7365314886       -1.0913507160       -5.6768862408
 H         -2.1985142795       -1.3808355075       -4.8499469945
 H         -2.4227755651       -0.6688985886       -6.2002670009
 O          7.1278664875       -1.4946387330        0.5679002282
 H          6.4910368296       -1.4055114766       -0.1775066725
 H          7.1365359359       -2.4352241009        0.8339200669
 O          4.9101140147       -2.7763239270       -3.5102389212
 H          4.4468912966       -3.5523324276       -3.1263342936
 H          4.3148743227       -2.4154851579       -4.1705515472
 O          7.7478277617        1.7560439583       -1.1089997288
 H          8.4188888354        1.0509093092       -0.9631481327
 H          7.2980718867        1.5581503962       -1.9475694346
 O         -4.2678204433       -3.8589113960       -3.1460823770
 H         -3.9146699063       -4.7263646086       -2.8621196677
 H         -4.9732976864       -3.6518763166       -2.5042250025
 O          3.6176763959       -4.9520271821       -2.5405106465
 H          3.1450349013       -4.8721252950       -1.6936389906
 H          2.8903654717       -5.0375213844       -3.1721744550
 O         -1.5751101800       -4.8056844427        2.7941625002
 H         -2.1094802039       -3.9903090154        2.6517414049
 H         -1.1220806230       -4.6418392186        3.6406952495
 O         -3.4929680200       -5.1413692186        0.7285442861
 H         -2.9237314801       -4.5463466794        0.2186670085
 H         -2.9461847239       -5.4747609286        1.4481449201
 O         -0.1018247524       -3.5727258193        4.6533756206
 H          0.8133980697       -3.7455677051        4.9039249844
 H         -0.0744297246       -2.7719916927        4.0772193156
 O         -6.0953849008       -0.6986170234        3.9335172353
 H         -6.5521750678       -1.0243467902        3.1375378620
 H         -6.5316031734        0.1506440228        4.1762172561
 O          0.1759922631        1.0129568874        4.3873672594
 H         -0.8064951612        1.0181398584        4.5120299931
 H          0.3875169238        1.7942415747        3.8596297709
 O          0.9973472948       -4.6975182554       -3.3593661508
 H          0.5893848861       -4.6446380972       -4.2321970957
 H          0.4655994618       -5.2966672442       -2.7957686394
 O         -8.5181612243        0.6692453904        1.8508505963
 H         -8.0318980819       -0.1688559162        1.7921078836
 H         -9.3062224768        0.5352652897        1.2870935446
 O         -2.3745180003        0.6116381363        4.6844941130
 H         -2.8360829468        0.5180897816        3.8202657200
 H         -2.4173360013       -0.2567667080        5.1172165890
 O          7.3111916520       -4.0496200983        1.4236921579
 H          8.2116174419       -4.0108989459        1.0570172926
 H          6.7975465623       -4.5224151687        0.7503366610
 O        -10.2571534000        0.0252105117       -0.1129934147
 H        -10.3349604040        0.9745277939       -0.3450338702
 H         -9.5797491177       -0.3324347803       -0.7152715659
 O         -3.2922703213        3.2944927292        4.6381552627
 H         -2.5834750049        3.8157978077        4.2303955393
 H         -2.9282308525        2.4138855805        4.8121722670
 O          2.6711445059       -3.4801907676        4.7662499456
 H          3.5742960126       -3.7220246768        4.5295065604
 H          2.6376221424       -2.5130360765        4.7352448100
 O         -0.7615509249        3.6578307913       -1.8447381261
 H         -1.1486547124        2.7569855739       -1.9303358435
 H          0.2002736407        3.5272115309       -1.9745675532
 O         -0.8534514678        3.7211051706       -4.5935544218
 H         -0.9344703294        3.9134878985       -3.6408311930
 H          0.0009202311        3.2860433548       -4.7039504477
 O          1.5296460072        2.0721650116       -4.9309400976
 H          0.9919404013        1.2819624130       -4.6537518327
 H          1.5114123925        2.1006073121       -5.8878588481
 O         -4.3763415943       -2.7076382778        4.4525159456
 H         -5.0441350446       -2.0016719857        4.4892740576
 H         -3.7296430697       -2.5123034884        5.1453077745
 O         -1.2970961884        4.7692375202        3.2929820514
 H         -1.0571234750        4.7912092130        2.3546425906
 H         -0.6646962421        5.3273178469        3.7452129516
 O          9.2860375133       -0.3232949628       -0.4906500134
 H          8.5302376657       -0.8252628030       -0.1098535948
 H          9.7217813207        0.1015372508        0.2820050685
 O         -0.5788874362       -5.9255687251       -1.5184133582
 H         -0.1610073750       -6.2977432133       -0.7251410800
 H         -0.9788141471       -5.0874832042       -1.2168201568
 O         -7.1693236541        1.7122488113        4.0456965044
 H         -7.8514611368        1.5564767372        3.3764300395
 H         -6.5205676254        2.3141184909        3.6605949847
 O          2.3343194109        5.1451195115        3.1660782974
 H          3.0648121544        4.8108724810        3.7033220471
 H          1.6858951617        4.4198666640        3.1215964999
 O         -5.0101460356        3.1514593730       -3.1834756318
 H         -5.4731902950        3.7460742426       -2.5637955739
 H         -5.6696953748        2.5701554388       -3.6036491739
 O          6.0949163457        1.4817512148        4.7393100800
 H          5.7083725559        0.6486424448        4.4160811861
 H          6.9964728669        1.5044085735        4.4126436353
 O          6.7243000717        1.4034409773       -3.6809728246
 H          5.8461514411        1.0698728240       -3.9148351793
 H          6.6774494015        2.3581944063       -3.8037447280
 O          7.4056001936        4.4440630115       -0.6511525457
 H          6.8829986464        4.4948598979        0.1581933408
 H          7.6631228690        3.5114364048       -0.7600961940
 O          5.8812360365       -4.5382335491       -0.8195793853
 H          6.4933629642       -4.0317424672       -1.3890491714
 H          5.2810445294       -4.9930016928       -1.4203775729
 O          7.4597737195       -3.1632862528       -2.5608915955
 H          7.9065772765       -2.3136141182       -2.7631260426
 H          6.6970709934       -3.1634045752       -3.1551940017
 O         -2.0570666662       -1.9305034918        5.7997278213
 H         -1.4217435351       -1.4716683922        6.3755718661
 H         -1.5310778939       -2.6579394363        5.4295725493
 O          8.5606429209       -0.7847658684       -3.1403575162
 H          9.0090781650       -0.5305056890       -2.3217089429
 H          8.0042615539       -0.0447873603       -3.4129605086
 O          9.9398250922        0.9128989862        1.7711025052
 H          9.3419982851        0.4487667264        2.3722922325
 H          9.6458412663        1.8380222119        1.7859101516
 O          2.8534299910       -4.8701871139        2.2086655954
 H          2.3557909894       -4.5066786267        2.9508392175
 H          3.7645654684       -4.5814386317        2.3813211383
 O          0.2434313101       -3.1249008863       -5.4793641487
 H          1.0685627891       -2.6315010819       -5.4383739035
 H         -0.4525741207       -2.5037842591       -5.7332834305
 O         -5.8420121247        4.4730847471       -0.9563912245
 H         -5.0498853903        4.6326919874       -0.4278319272
 H         -6.4123383599        3.9179336952       -0.4089709935
 O         -5.6414188380       -1.8394797098       -4.4754371206
 H         -5.1781176023       -2.6762237763       -4.3440021055
 H         -5.0951658553       -1.2762613435       -5.0595690291
 O         -4.3538382002        0.1542682376       -5.7850615059
 H         -5.1946597989        0.6295749279       -5.7392230588
 H         -3.7505471582        0.7352971819       -5.2825714905
 O         -7.7171414431       -4.2415414930        0.4219107930
 H         -7.0851246010       -4.2905839850        1.1526990382
 H         -8.3711186860       -3.5724923456        0.6799907417
 O         -9.4513330692       -2.2355977140        1.3549844182
 H        -10.0005083358       -2.4640219656        2.1035762740
 H         -9.9394786565       -1.5769795070        0.8402912356
 O          0.8813893219        6.2835346391       -0.9944559285
 H          1.7783898232        6.1158779432       -1.3124243489
 H          0.3054443363        6.2491324594       -1.7603114570
 O         -8.8860930738        2.0445958123       -3.1561567234
 H         -8.0555971344        1.8449852548       -2.6808786502
 H         -9.1864332180        1.2001830857       -3.5037567109
 O         -8.0242510102       -0.6892023063       -3.9218036530
 H         -7.3438424874       -1.2930346174       -4.2607056784
 H         -8.1565222973       -0.9451257549       -3.0003476910
 O         -6.5899719095        1.4938817156       -4.7149027861
 H         -7.3017470610        2.1205894883       -4.8630003467
 H         -7.0352658847        0.6864772286       -4.3820674502
 O         -3.3471544360       -6.0956860438       -1.9785024399
 H         -2.3920906589       -6.2566627226       -1.9562726733
 H         -3.6357812594       -6.0225535149       -1.0597874307
 O          9.2728120069       -3.3956228807       -0.3573651387
 H          9.7062458024       -2.5385060629       -0.4118286539
 H          8.7596066802       -3.4820464046       -1.1721483799
 O          8.7431178108        3.4197329275        1.8176099265
 H          7.8498478783        3.7241600051        2.0438606209
 H          9.0007393574        3.9254631616        1.0427766271
 O         -9.8419124443        2.6083682538       -0.6820094512
 H         -9.0551231838        2.9439032434       -0.2444691561
 H         -9.6279877643        2.5697204388       -1.6343865934
 O          0.2090212899       -0.6575538311        6.6533872690
 H          1.0103254230       -1.1497660288        6.4646322721
 H          0.2336693557        0.1378782141        6.1058568634
 O          0.2753227622       -6.3958100304        1.0944850322
 H          1.1517402132       -6.1656448301        1.4193623097
 H         -0.3583438225       -6.1021204908        1.7586036287
