  537

 H         -0.5425051371       -1.1597999111        0.9180892001
 C         -0.6112525246       -0.5412951327        0.0100730811
 H         -0.5391307122       -1.1969147964       -0.8712439688
 C          0.5103665470        0.5037884448       -0.0094866509
 H          0.3911101282        1.1518927793        0.8600977516
 H          0.3944401344        1.1152683545       -0.9056408208
 O         -1.7891815606        0.2100252357       -0.0077287161
 H         -2.5646585729       -0.3620735178        0.0026735679
 N          1.8637419680       -0.1172792474        0.0059469776
 H          1.9871272345       -0.7237039021       -0.8163105103
 H          1.9839789184       -0.6890760103        0.8531060419
 H          2.5930823170        0.6072403717       -0.0077050758
 O          1.6108986986       -1.7659255325       -2.1964698656
 H          2.2848916460       -2.4439479945       -1.9525114026
 H          0.8036533717       -2.3033415411       -2.3047026364
 O          1.4035436488       -1.9208124132        2.1418517053
 H          1.9143467169       -2.3938171172        2.8255913554
 H          0.5449643094       -1.6973559055        2.5451596237
 O          3.0399540483        2.0022248696       -1.2196022396
 H          2.1687729261        2.3812057623       -1.4138370726
 H          3.2537617530        1.3791321114       -1.9326337768
 O          1.0767874029        0.9960058205       -3.1296083929
 H          0.6476920201        0.1316387916       -3.2017566609
 H          0.3440483575        1.6326209701       -3.2090760732
 O         -3.4641876312       -1.7734768634        0.9265276441
 H         -4.0120944118       -0.9614126610        1.0008527108
 H         -3.8950236043       -2.3247009325        0.2666411481
 O          4.1738978587        0.3073242561       -3.1203147759
 H          3.6897882752       -0.3346329256       -3.6479643874
 H          4.3192255666        1.0877211957       -3.6941245582
 O         -1.5040761343       -3.4573209385        2.0338148892
 H         -1.5010999419       -2.6190385095        2.5321463953
 H         -2.1050022351       -4.0777613355        2.4760927668
 O          0.9048425242       -3.8374601353        0.2476715337
 H          1.1438540296       -3.1519151300        0.8918041434
 H          0.0203687170       -3.6367862995       -0.0914663211
 O         -1.7212450295       -3.4739590624       -0.5849317941
 H         -1.8291468441       -3.2243834436        0.3519358071
 H         -1.9645173412       -4.4199796755       -0.6047771287
 O         -1.9572239323        1.2635664435        2.3886065281
 H         -1.5383033164        2.1430473456        2.3806615992
 H         -1.9877869113        0.9683818061        1.4571669181
 O         -3.1931796780        1.3335741273       -2.1132854970
 H         -4.1643576666        1.4106698381       -2.0892947363
 H         -2.9876804921        0.3950399913       -2.0203545272
 O          0.7216484315        1.1718974378        3.2703962557
 H          1.1970033061        0.3733422076        3.0302533950
 H          1.3275073048        1.6335502063        3.8862880024
 O         -0.8814916666        3.6012245649        1.6436870632
 H          0.0960785726        3.5205772873        1.7207892778
 H         -1.1478028595        3.3666369022        0.7295790072
 O         -4.2517780910        3.4915075015        2.5887755001
 H         -4.7046442857        4.3391251800        2.7368286588
 H         -3.4872642747        3.4559072440        3.1916287926
 O         -1.7506333176        3.3104639630       -0.8099958477
 H         -2.2842820837        2.5458225171       -1.0928629716
 H         -2.3614932442        4.0505148210       -0.6405904832
 O         -1.2524143687        6.7011750033       -1.4747025768
 H         -0.5845776302        6.6305884021       -0.7734019137
 H         -2.0702913277        6.4501457612       -1.0029703364
 O         -4.4537794808        2.9655104125        0.0245296528
 H         -4.4953413073        1.9908791115        0.1037834909
 H         -4.1524673730        3.2794324885        0.8989861704
 O         -2.6403187769       -1.4778631279       -2.1886836545
 H         -3.1326781644       -1.8099355573       -2.9592822861
 H         -2.3860005356       -2.2386195125       -1.6277962037
 O          3.0174387323        1.5754832861        1.7231188203
 H          3.8058820601        2.1083334234        1.5047878008
 H          3.2008451043        1.0888070625        2.5403338800
 O          4.0343141303       -1.4360844954       -0.8449723598
 H          4.5820671227       -2.1145774660       -1.2734553898
 H          4.4345566984       -0.5723867957       -1.0375921929
 O         -4.1990484962        4.0726110915       -2.4246119262
 H         -4.2910259198        3.6371808545       -1.5548324547
 H         -4.5218679624        3.4381665167       -3.1023292084
 O         -1.1645112274        2.3959325768       -3.5749951880
 H         -1.2930132556        3.3506520060       -3.4077469488
 H         -1.9154961613        1.9501165099       -3.1403532523
 O          4.4335679245       -1.2693739914        1.7190411011
 H          5.0766635212       -0.5459868715        1.8432816784
 H          4.2892079068       -1.3827484050        0.7504155196
 O          6.5949532785       -0.8890921035       -2.9187100531
 H          6.3028092827       -1.8206588129       -2.8328789546
 H          5.7636543945       -0.3748284249       -2.9159273592
 O         -5.3789434764       -1.1333588536       -1.5174516026
 H         -5.1703859094       -0.7358347666       -2.3851462836
 H         -4.9172467978       -1.9877317742       -1.4640721132
 O          4.8535709196        3.8664653293       -1.7735119512
 H          4.1444625449        3.2547169408       -1.4717854392
 H          4.4414701167        4.5887118944       -2.2707441096
 O         -4.2065779120       -3.2427377424        2.9732889023
 H         -3.6599966365       -3.2108689019        3.7796189715
 H         -3.8495957672       -2.5769841005        2.3466737032
 O         -4.7982015240       -0.0656796948       -3.9126078098
 H         -3.9432591568       -0.1537280437       -4.3760964379
 H         -5.4913864601       -0.3675598983       -4.5248814906
 O         -5.9601798516        1.6692983646       -1.9914550845
 H         -6.4364235872        0.9988652981       -2.5212353802
 H         -6.4256600773        1.6305810891       -1.1274172743
 O          7.1688821564       -0.9172312845       -0.2658253141
 H          7.1855325732       -1.0446432775       -1.2305705164
 H          6.4983381299       -0.2127181715       -0.1401503711
 O         -0.6349490068       -1.0134825478       -3.8227380342
 H         -0.4960469762       -1.8666325746       -4.2374974703
 H         -1.2952967538       -1.1473164227       -3.1051183183
 O         -4.6617422102       -5.0280260553        1.0321431068
 H         -5.6339121228       -5.1118144258        1.0752674698
 H         -4.4302711512       -4.4648047570        1.8009045565
 O         -4.8252161498        0.3997752118        0.5967672770
 H         -5.2832146038       -0.0494022947       -0.1410351695
 H         -5.4642085378        0.6144395014        1.2994604162
 O         -0.1367153972       -3.7175129007       -2.8059294105
 H          0.2617602928       -3.8423888445       -3.6931178607
 H          0.1877579627       -4.4650922130       -2.2500585473
 O          3.0958624283       -0.2805479453        3.7915804905
 H          3.4622892901       -0.8155022229        3.0622232686
 H          3.8464185821       -0.1370146071        4.3994484162
 O          2.4282442260       -1.5965719365       -4.6820979347
 H          2.3015159411       -0.7439353707       -5.1255401317
 H          2.0708893296       -1.5281387819       -3.7597065272
 O          4.5124549763       -4.2312417151        0.2189905215
 H          3.9013858013       -4.3633794269        0.9706548572
 H          5.3065782149       -3.7352636066        0.5354674508
 O         -4.4673636785       -3.6734989988       -1.2756652175
 H         -5.0687730558       -4.1473162305       -1.8880878640
 H         -4.5195656864       -4.1714556225       -0.4304428556
 O          5.3400808165        0.9156454599       -0.5369741998
 H          5.1154005966        1.6975902579       -0.0102197932
 H          5.8129400134        1.2635786323       -1.3155693122
 O          0.8133190895        3.4253285747       -1.6873810505
 H          1.2340003782        4.2460914122       -1.3629803456
 H         -0.1216352538        3.4421183554       -1.4245895814
 O          2.7136091302       -4.0589115824       -1.6736479441
 H          3.5472294952       -4.0800215070       -1.1681078018
 H          2.0185832122       -4.1596105657       -0.9867945209
 O          5.0660676232       -3.3422720952        3.1472164629
 H          4.8761149849       -2.6867539057        2.4353388921
 H          5.5653191107       -4.0893655933        2.7699490635
 O          2.6898385139       -3.1124534641        4.2573677401
 H          3.5875722270       -3.3050741625        3.9051312207
 H          2.3449074083       -3.9434517648        4.5890003029
 O         -1.0305988969       -1.1432412014        3.2070791753
 H         -0.5805756471       -1.0808036833        4.0696167934
 H         -1.3325079756       -0.2433256023        2.9759617759
 O          1.6771560092        3.7757500687        2.1130539941
 H          2.1511502802        2.9149173830        1.9883165118
 H          1.3884634200        3.8283027773        3.0441676617
 O          0.1427011322        6.0857339536        0.7797159582
 H         -0.2997697981        5.2440095202        0.9769328374
 H          0.3306506348        6.4786495629        1.6544842930
 O          0.3701697969       -5.0665882282        2.9713335174
 H         -0.1327386664       -4.3883265219        2.4725701016
 H          1.3061426180       -5.0001063013        2.6567070488
 O         -5.7367339284       -1.0283943791        3.3237527789
 H         -6.0301022045       -1.2545592823        4.2179106576
 H         -5.0724633748       -0.3185903268        3.4510751457
 O          4.5697095401        2.5747982237        4.0388207973
 H          5.1403078565        2.5567262165        4.8353747409
 H          4.9751403385        1.9284453036        3.4327490398
 O         -1.8867997927        4.9548951952       -3.3957756833
 H         -2.7380008242        4.6740741577       -2.9956628760
 H         -1.5316069243        5.6157900740       -2.7650537086
 O         -6.3392393340       -2.2590472858        0.9479925893
 H         -5.8965071439       -2.1011185802        1.7964153080
 H         -7.0951465190       -1.6510995875        0.9689130894
 O          2.2112821504        2.3017131089        5.1616663731
 H          3.1148670209        2.3846309680        4.7752996723
 H          2.2460711889        1.6438665763        5.8769333200
 O         -9.0324845549       -0.6153798055       -0.4460599469
 H         -9.7315093241       -0.7985780824        0.1924466873
 H         -8.5525903512       -1.4386803815       -0.6769873944
 O         -3.9569962766        0.7642411134        3.9388265453
 H         -4.2382035599        1.5438354475        4.4592217822
 H         -3.2850528544        1.0638571286        3.2881248400
 O          6.7018562039       -3.1196783248        1.0097388292
 H          7.2708438457       -3.8002388905        0.6200805787
 H          6.8727564251       -2.2891337027        0.5150682856
 O          5.9900538488        0.8305846789        2.4395878535
 H          6.4391795784        1.2219796541        1.6690191163
 H          6.7020492769        0.7259535651        3.0907287034
 O         -7.5803146167        1.1842277623        4.7755339961
 H         -7.1005797199        1.3061887990        3.9217553740
 H         -7.6321418447        2.0700896601        5.1518459974
 O         -2.5471903435        0.1253739285       -5.3428139463
 H         -1.8033577712       -0.2740177691       -4.8479658257
 H         -2.1874108245        0.9639268246       -5.6887727776
 O         -2.6157375043       -0.7022502014        5.6451302599
 H         -3.0950076270       -0.2717596442        4.8939917357
 H         -3.1600714697       -0.4346608635        6.4129371363
 O          3.0889912736        5.9919385052        2.5499758003
 H          3.8169964201        5.7694145791        3.1610150694
 H          2.6168290576        5.1490063259        2.3560055385
 O         -6.2808135688        1.6776513968        2.4941888967
 H         -5.5930985149        2.3659462895        2.5713436919
 H         -6.8363828907        1.8643701600        1.7135989262
 O         -8.0321641154       -0.5007228011        2.1090080136
 H         -7.1719975847       -0.4070479352        2.5654276332
 H         -8.5085532980       -1.1588860076        2.6514987948
 O         -6.8209731851        4.1734510426        0.1721234413
 H         -7.2897351340        4.0639184294       -0.6829668361
 H         -5.9942536974        3.6412001468        0.1018566744
 O         -7.5399181443        1.5124150422        0.1314471486
 H         -8.2577493079        2.1482151297       -0.0755632938
 H         -7.9745781618        0.6463667919       -0.0028256605
 O          7.6094659645        2.0082695998        0.5205096220
 H          7.4311494788        2.9239240932        0.2222250440
 H          7.9393283413        1.5350269102       -0.2660851173
 O          4.9778810924        3.1918222867        1.0390009209
 H          5.6540429504        3.3188537884        1.7267614569
 H          4.7176618687        4.0688383947        0.7141285730
 O          6.6280337930        2.0863507520       -2.5958959799
 H          6.7076842582        1.7438081398       -3.5005402266
 H          5.9319515617        2.7740280077       -2.5638818894
 O         -2.0628742925        3.3188799227        4.3188544966
 H         -1.7703932325        2.4405931924        4.6496463494
 H         -2.2509293042        3.8211443380        5.1238742129
 O         -0.8286652789        1.2601980504        5.4709174705
 H         -1.3788616545        0.4696722479        5.6278305063
 H         -0.2802461591        1.0829411863        4.6806644305
 O         -2.6362030897       -4.4240818699       -3.1525505028
 H         -3.1462009570       -4.1347204947       -2.3705424478
 H         -1.6944227398       -4.1854071856       -2.9666502771
 O          2.0571265652        0.9215442382       -5.5751196777
 H          1.9594193974        1.7605445096       -6.0662051523
 H          1.7602233111        1.1171746210       -4.6523882189
 O         -2.4963505391       -6.0466603920       -0.2366599599
 H         -1.7861052618       -6.4607416705        0.2795821908
 H         -3.2252497219       -5.8513972436        0.3732775522
 O          2.1539535179        3.6236592486       -4.0291829693
 H          1.7028727461        3.3985431303       -3.1955818990
 H          1.4819911068        4.1079002323       -4.5522350957
 O          0.8248885229       -3.7059942195       -5.2659453537
 H          1.4732762474       -2.9742665041       -5.2181626235
 H          0.0884844063       -3.3728064341       -5.8067520226
 O         -0.0292359369       -0.1476462550       -6.8936735870
 H          0.7745124769        0.1581423559       -6.4215575711
 H         -0.5552640868        0.6477770587       -7.0243772481
 O          7.3992441262        0.7502454992       -4.8562685685
 H          7.2385881190       -0.0204439759       -4.2707035201
 H          6.8225459965        0.6406063598       -5.6173707602
 O          4.3157482730       -3.5070724685       -4.6326090086
 H          3.6599344016       -2.7929415110       -4.7071451054
 H          3.8068855143       -4.3364628533       -4.5163478273
 O         -7.6322878887       -2.4673592811       -1.6344922635
 H         -6.8101973570       -1.9302294103       -1.5598396079
 H         -7.9822160697       -2.2905370958       -2.5277099644
 O          1.7982255339        0.3297380403        7.0253377743
 H          1.2560296064       -0.1662775687        6.3680326554
 H          1.1890909424        0.6569558276        7.6855721029
 O          4.4797315564        2.4088491548       -4.7020566148
 H          5.1527827647        3.1182576366       -4.7037660659
 H          3.6136500140        2.8401811159       -4.5950424473
 O          0.5126518988        4.2251750764        4.4990021022
 H          1.0598882098        3.5546393669        4.9474876774
 H         -0.3777776437        3.8437311593        4.3634336551
 O          1.2241090680        3.1244364913       -6.8622956701
 H          1.2488017504        4.0465970386       -6.5935201413
 H          0.2860687002        2.8705244924       -6.8024483892
 O          0.8173188245       -1.1770353357        5.1032065984
 H          1.6536448698       -1.0384051152        4.6161466868
 H          0.7108856706       -2.1392820971        5.2657385496
 O         -7.3379661589       -4.6887100436        0.9838238942
 H         -7.5655755984       -4.9576171331        0.0693786122
 H         -6.9829934730       -3.7629299899        0.9187555072
 O         -4.9853219604        2.5684449927       -4.4727215624
 H         -4.8366961039        1.6414016345       -4.1911805284
 H         -5.9006989420        2.5775623400       -4.8214591412
 O          2.0796366319        5.6274896188       -0.9601108925
 H          2.9945544831        5.6678760490       -0.6308063614
 H          1.4981064780        5.8698204069       -0.2103603404
 O          8.9199173288        0.8279054859       -1.4756639846
 H          8.8450164054       -0.1365944356       -1.6118498013
 H          9.1438417238        1.2067646371       -2.3485768541
 O          8.3133817839       -0.5813900966        2.1966006218
 H          8.1531810996       -0.7718928055        1.2618356200
 H          9.2124363750       -0.8630210881        2.4308225605
 O          6.9316753262        3.5685826181        2.9176551318
 H          7.7215998512        3.9597103161        2.5150849237
 H          7.2397795638        2.8183193647        3.4476705399
 O          7.0107913309       -1.8996687549        4.0772627561
 H          6.2574431643       -2.4376393481        3.7230042676
 H          7.3479171671       -1.3581467324        3.3217416737
 O          5.5015413850       -3.1803985598       -2.2854980630
 H          6.1955592692       -3.8591898182       -2.1924541908
 H          5.0233966349       -3.3915462185       -3.1158517050
 O          9.3105194435       -1.7757572965       -1.9984469796
 H         10.1824865622       -1.4329573539       -2.2766910302
 H          8.9036377648       -2.1773814607       -2.7864764078
 O          5.1579368319       -6.6511294429       -0.5056547138
 H          6.0496324176       -6.8385555442       -0.2120241649
 H          4.9720718995       -5.7072157729       -0.2513849337
 O         -8.0702112716       -5.0291692960       -1.5584526359
 H         -9.0362052284       -4.9879425216       -1.6078136691
 H         -7.8253670612       -4.0689485971       -1.6058485908
 O         -8.9569027683       -2.4493862610        3.6888745458
 H         -8.1408253604       -2.9499667703        3.8861926963
 H         -9.3942778724       -2.9389810440        2.9693672995
 O         -6.5970278312       -3.7865960093        4.0957496190
 H         -5.8513486024       -3.3898869607        3.6032702944
 H         -6.4450077289       -4.7401181780        3.9898517824
 O         -6.0574062639       -3.3181421456       -4.9131336061
 H         -5.1762787772       -2.9002796783       -4.8699103593
 H         -5.9812944151       -4.1019407625       -4.3446808245
 O          2.7111611811       -5.4975059155       -3.9035517328
 H          2.6044584660       -5.0655967577       -3.0230685683
 H          1.9268673265       -5.2935517948       -4.4191231999
 O         -7.6870434010       -0.0085819378       -3.1597928392
 H         -7.5901771039       -0.3425863984       -4.0560204834
 H         -8.3745447547        0.6846264183       -3.1852334855
 O         -0.2273897088       -6.8447742694        1.0244418226
 H         -0.0249088465       -6.2336496438        1.7648635942
 H          0.5833138132       -7.3432861473        0.8798477542
 O          9.5569712059       -3.0018781558        0.4117792073
 H         10.3890978424       -2.5530609590        0.6161806217
 H          9.2950062473       -2.6192157463       -0.4466733392
 O          8.0167584865       -5.3235324236        0.0276357432
 H          8.8755070061       -4.9076730351        0.1714608287
 H          7.8594837768       -5.2718196795       -0.9339530111
 O          2.8333051775       -5.1196389402        2.0906468187
 H          3.3932933064       -5.4889935087        2.8147969431
 H          2.6814843441       -5.8474147036        1.4492330206
 O         -3.4940097697       -2.4686709596       -4.6358596672
 H         -2.8469908230       -2.2731057536       -5.3303622615
 H         -3.2048191850       -3.3221883455       -4.2415387971
 O         -2.6722184252       -3.2979061568        5.2206400216
 H         -3.4667803517       -3.4685786144        5.7755785506
 H         -2.5208049924       -2.3299800045        5.3480076723
 O          9.7312792691        1.6894202959       -3.8825184531
 H          9.6508937053        2.6472044007       -3.8374753831
 H          8.9769207032        1.3730416552       -4.4137450605
 O          5.2803285713        5.3736138488        3.9937329212
 H          5.7044981767        4.5466283324        3.6779604495
 H          5.0880612476        5.2219240501        4.9190334662
 O         -6.6849890265       -1.0082946749        5.9114522389
 H         -7.4480725053       -1.5705340600        6.0531674255
 H         -7.0314496135       -0.1515834703        5.5689022077
 O         -3.0885596412        5.5423247575        0.1143573011
 H         -2.8053192156        5.7009712149        1.0301784872
 H         -4.0027369226        5.8901318232        0.0510512319
 O         -9.3427455360        2.1120111955       -3.3431118172
 H        -10.1990090778        2.0317190680       -2.9130567745
 H         -8.8679219582        2.8290049808       -2.8794341308
 O         -9.7861368535       -3.7538919880        1.4413754256
 H         -8.8909658686       -4.1619755579        1.3228316649
 H        -10.3941255901       -4.4759310212        1.5952627365
 O         -7.4963270757        3.8293712363       -2.3734590047
 H         -7.0884067432        4.6573743749       -2.6722861505
 H         -6.8174854549        3.1202903549       -2.4243327054
 O          6.3583534833       -2.1348644323       -5.7268222174
 H          5.8962076527       -1.3024271362       -5.9021949591
 H          5.6687692360       -2.7652724010       -5.4621278560
 O          0.1030363946       -3.7404984794        5.3198985503
 H         -0.8469351828       -3.6445848705        5.4716946564
 H          0.1988609876       -4.2866378298        4.5139629280
 O          0.5528217398       -5.9246285700       -1.5262914825
 H          0.1164290021       -6.0726576143       -0.6727356904
 H          0.1135652029       -6.4993224127       -2.1794640946
 O         -5.5823351001        6.4827871933        0.0019162405
 H         -6.1209914889        5.6562250259        0.0633429964
 H         -5.7258401574        6.7887006971       -0.9004659274
 O          8.4677987616        3.9917360201       -2.6405240583
 H          7.9316161290        3.1658815082       -2.5865221394
 H          8.1112684334        4.5131788574       -1.9031013278
 O          4.9321265331        0.2266887442       -6.2166058051
 H          4.7049874167        1.0568248483       -5.7503772912
 H          4.2414787638        0.1021590431       -6.8672722713
 O          2.5059453280       -6.9787460169        0.1773441131
 H          3.4296770661       -7.1126637886       -0.0826398582
 H          2.0697929980       -6.5538751239       -0.5793556499
 O          9.7246435125        1.9557172312        2.0350499466
 H         10.4246364825        1.5871682524        1.4744645952
 H          8.8904313617        1.8479003018        1.4999099806
 O         11.1483675305        1.1393711923       -0.1787092337
 H         11.2595937820        2.0939597191       -0.3380638001
 H         10.2591319931        0.9645479835       -0.5943999115
 O         -2.5286005811       -5.5025057001        3.5729998099
 H         -1.7224485958       -6.0230769654        3.6046188329
 H         -2.5080980274       -4.8998368480        4.3333267577
 O        -11.3318413264       -0.1170313358        1.0120725469
 H        -11.9813387973       -0.4247207946        1.6429157131
 H        -10.8060643370        0.5842429534        1.4623282943
 O        -10.4307055258       -3.6533800919       -1.3923232897
 H        -10.3517192993       -3.4462675667       -0.4521678601
 H        -10.6080028022       -2.8125784491       -1.8468878173
 O         -5.0608621195       -3.3308724956        6.3164889893
 H         -5.6817638094       -3.6126212285        5.6175340902
 H         -5.3155546980       -2.4307809708        6.5387830386
 O         -9.6932527478        1.5569997083        2.3017566138
 H        -10.0089224304        1.2594580302        3.1760092043
 H         -8.9649001732        0.9194700953        2.1025855065
 O          7.0940817662        4.4882127300       -0.4088870042
 H          6.9566029683        5.1306726382        0.3024346326
 H          6.2214753538        4.3143784184       -0.8195430494
 O          5.2776758257       -0.2593686291        5.3934650280
 H          5.9667009876       -0.8004848265        4.9626749031
 H          4.7855844296       -0.8574275617        5.9901258805
 O          3.8387581865        5.6459028991       -3.5354066424
 H          3.2067736810        4.9352561024       -3.7902041493
 H          3.3236551984        6.4536189427       -3.5042728863
 O         -4.7631003142        2.8052485407        5.4790903026
 H         -5.6766389894        3.0350584223        5.2377065162
 H         -4.2969151817        3.6571054311        5.4378525523
 O         11.4599929626       -0.2662246968       -2.6589970881
 H         11.0646990757        0.3620061603       -3.2785155007
 H         11.6445665983        0.2444682563       -1.8572784727
 O        -10.4696412055       -1.1321568385       -2.6547398093
 H         -9.9239727067       -1.3405532603       -3.4195772121
 H         -9.8489945148       -0.8158567879       -1.9626718604
 O         -5.8022202559       -5.2576444486       -2.9691628772
 H         -6.6535974763       -5.4623604300       -2.5471180716
 H         -5.2288687540       -6.0418218244       -2.9062684455
 O         -6.6786337261       -0.6245279986       -5.8008577782
 H         -5.9940739522       -0.3076393419       -6.4344138060
 H         -6.7355533722       -1.5772788344       -5.9177555689
 O         -4.5916874636        0.3438719102       -7.1040162482
 H         -3.8187357254        0.1223179975       -6.5555748195
 H         -4.6383217063        1.3016987548       -7.1306223605
 O         -1.2961251248       -2.3835307098       -6.3744804514
 H         -1.6175968491       -2.6674824507       -7.2289302589
 H         -0.8432229852       -1.5133441824       -6.5369371276
 O         -7.1665252765        3.8320735389        4.7506865140
 H         -7.5847379041        3.8407806243        3.8556898071
 H         -7.0408204980        4.7471261362        4.9961765960
 O         -9.6819736042        2.9814440372       -0.4191056003
 H        -10.3196341417        2.3484079485       -0.8016062738
 H        -10.1014052630        3.3593186988        0.3542919276
 O          7.4849503608       -4.9301884374       -2.5772257765
 H          6.8354791977       -5.5288056985       -2.9993169914
 H          7.8899573610       -4.3834032497       -3.2692245100
 O          5.3355861849       -6.3553395710       -3.2121884227
 H          5.1865133351       -6.5832677676       -2.2760689366
 H          4.4615814113       -6.2094741183       -3.5897919499
 O         -7.4415064655        2.1550489474       -5.4144335316
 H         -8.2069019737        2.2527248311       -4.8313394154
 H         -7.4209996219        1.2334778162       -5.6952593470
 O          8.1182669772        1.4387132601        4.1892850100
 H          8.8129335999        1.5285398410        3.5157701031
 H          8.4372198441        0.6956093154        4.7519180987
 O          0.3525152753        5.2447195922       -5.0847653315
 H         -0.5357517577        5.0825079838       -4.7447065138
 H          0.6961225057        5.9683461663       -4.5209996007
 O          6.2361926700        4.4172750210       -4.4487776845
 H          7.0472264938        4.4813169530       -3.9246758329
 H          5.6203017998        5.0935759869       -4.1382987140
 O        -11.4522786298        1.1701709483       -1.4450191711
 H        -11.5791274087        0.7291413550       -0.5883559442
 H        -11.3409199608        0.4348494112       -2.0668229679
 O          8.3865836244       -2.9454160045       -4.2654986368
 H          9.1092277530       -2.9959627358       -4.8892402564
 H          7.6207690044       -2.5722577896       -4.7678230436
 O         11.7888354749       -1.3464131156        0.7559789317
 H         11.5807257113       -0.4349481993        0.4803529929
 H         12.5616479678       -1.6068985790        0.2548720984
 O          1.1244401632        6.9115563216       -3.1185961687
 H          1.5253176884        6.4403602422       -2.3590527379
 H          0.2806783159        7.2334669046       -2.7867836813
 O          6.7404965580       -5.4724218567        2.5551004925
 H          7.0142675252       -5.6627344063        1.6493046134
 H          7.5194357580       -5.0394727909        2.9470435682
 O          0.5620064348        6.7000652141        3.3539183756
 H          1.5133997941        6.8154157027        3.2036752299
 H          0.5066137345        5.8877117846        3.8869887387
 O         -4.5126490340        0.4592650650        7.0835363215
 H         -5.3181788693        0.0053151929        6.8107542215
 H         -4.5560103155        1.3491119660        6.7027883145
 O         -1.3118312900        2.3393929507       -6.2013225255
 H         -1.0808984062        2.3788096473       -5.2420565187
 H         -1.9913494283        3.0433399899       -6.3007414175
 O          8.8264468558       -3.7214502578        3.0481944062
 H          8.8622411050       -3.4805358731        2.1070925829
 H          8.1939281061       -3.1056373422        3.4619806265
 O         10.4627743180        3.7023610773       -0.6771087342
 H          9.9839958337        4.1507038751        0.0298779307
 H          9.8987147221        3.7715062921       -1.4647187071
 O         -3.5786282332       -6.8483517159       -2.6194016229
 H         -3.2549275756       -5.9971061596       -2.9794473521
 H         -3.3145456788       -6.8122929667       -1.6848540562
 O         -8.5348398802       -2.5832419861       -4.1871736131
 H         -9.0787538995       -3.3715683019       -4.2019385035
 H         -7.6453055864       -2.8463042079       -4.5025560311
 O         -2.1566551004        5.7599414724        2.7423313784
 H         -1.4404883034        6.3542107708        2.9894449086
 H         -1.7512608248        4.8829357808        2.6008113206
 O         -8.3143622386        3.9127257099        2.3755259243
 H         -8.8702574491        3.1103122829        2.3457084503
 H         -7.8443981016        3.9516800283        1.5181995181
 O         -3.9680839529        5.3839429768        4.7940399508
 H         -3.2476158316        5.5880265870        4.1714354967
 H         -4.7564714641        5.7374134756        4.3701910763
 O          4.4263001802        5.8166580160        0.3232834790
 H          3.9259245165        6.0062494449        1.1575181703
 H          5.1987047844        6.3847006150        0.3472049475
 O         -5.8700742529        5.7309930818        2.7207995203
 H         -5.6636096484        6.2732571008        1.9490895923
 H         -6.7495271430        5.3715083970        2.5608467099
 O          9.3322346643        4.5280655891        1.9314116692
 H          9.5779992280        3.5626201217        1.9797594134
 H         10.0019530827        4.9830549929        2.4375511908
 O         10.6042880089       -1.6342174916        3.2579538525
 H         11.2558013589       -1.5907504173        2.5470104297
 H         10.2528124488       -2.5428721531        3.2777555897
 O         -5.8966029549        6.0302703956       -2.7600749025
 H         -5.1806772397        5.3686366348       -2.5920768424
 H         -5.7535206122        6.3594773097       -3.6453627305
 O         -3.2146648321        4.1152490095       -5.8125797486
 H         -2.8226596941        4.6521676075       -5.1137819286
 H         -3.8999127434        3.5711434325       -5.3792132407
 O          6.8407711777        6.2490121290        1.7063640378
 H          7.7522763571        6.0468032819        1.9343149070
 H          6.3163161891        6.1118641320        2.5080741868
 O          3.5306568143       -1.8841049270        6.5744896377
 H          2.9499336142       -1.2081611064        6.9500722001
 H          3.0881800649       -2.2295354495        5.7731202873
 O        -10.0541309102        0.0630740925        4.5090538654
 H         -9.8839974536       -0.8709071489        4.3318339937
 H         -9.1958862154        0.4389504921        4.7718756181
 O          4.4002070851       -5.9909622014        4.0187871863
 H          5.2487149191       -6.1004295322        3.5691867305
 H          4.5851809618       -5.3802422873        4.7528794701
 O         -5.3029576028       -6.1328572203        3.6132357734
 H         -4.3533237031       -5.9417368725        3.6523882674
 H         -5.4479836775       -6.6012043827        2.7903714254
 O          5.1471706981       -4.0776073158        5.8767650000
 H          4.6227109465       -3.4242130580        6.3552376249
 H          5.9379767016       -3.6292917297        5.5717498960
 O          9.0845160395       -0.6896349821        5.4187923336
 H          9.8106771694       -0.9271594850        4.8256724303
 H          8.3730903884       -1.3120552958        5.2198054898
 O         -0.9249839099       -7.0371192493       -3.4603243323
 H         -0.9773206355       -6.5216064948       -4.2657308280
 H         -1.8387517727       -7.2231272167       -3.1862119326
 O         -1.1681160295        3.6230112800        6.8814739734
 H         -0.9790864045        2.7046155788        6.6382697918
 H         -0.3735990555        4.1260153337        6.6929596729
 O          6.2169906221        2.2064440689        6.0792857641
 H          5.8884572071        1.2903225767        6.1082530011
 H          7.0815385824        2.1377439513        5.6555382232
