  612

 H         -0.5425061655       -1.1597978327        0.9180847371
 C         -0.6112500987       -0.5412959061        0.0100749843
 H         -0.5391315923       -1.1969147873       -0.8712391634
 C          0.5103653600        0.5037875015       -0.0094873663
 H          0.3911090811        1.1518899491        0.8600968368
 H          0.3944383798        1.1152660023       -0.9056397288
 O         -1.7891842819        0.2100254737       -0.0077315591
 H         -2.5646565674       -0.3620741823        0.0026749184
 N          1.8637429771       -0.1172781364        0.0059491308
 H          1.9871266935       -0.7237035821       -0.8163123970
 H          1.9839786508       -0.6890782646        0.8531067542
 H          2.5930835023        0.6072388951       -0.0077078923
 O          2.0573188470        2.4480537575        2.9358683013
 H          2.7551658034        2.8082105409        3.5142326371
 H          2.0519313728        2.9888102867        2.1254427820
 O          1.1861713924       -1.3853405583       -2.2595276334
 H          1.4297965564       -0.9182217694       -3.0658369545
 H          1.1337583056       -2.3215368699       -2.4889630351
 O          3.1634582407        2.1043622943       -0.5947977446
 H          3.0403412506        2.1351889088       -1.5541205757
 H          2.5832903172        2.8001609994       -0.2086427975
 O          0.3037353079        1.3802302725       -3.2045161553
 H          0.2936486741        2.2389668842       -2.7256521516
 H         -0.0003117239        1.5422074454       -4.1219232864
 O         -0.8342312534        3.3000898667        1.1021099219
 H         -0.9464957283        4.1383177274        1.6036704860
 H         -1.0175079918        2.5940319982        1.7472405793
 O         -0.8185403022       -3.5482743392       -1.0226069340
 H          0.0697250166       -3.3602783611       -0.6562274110
 H         -0.7855422178       -3.3072070687       -1.9749403196
 O          1.7307748004        3.8547188954        0.7022807351
 H          0.7660259314        3.7033083570        0.6732866854
 H          1.9190049342        4.7229533901        0.3007458542
 O          4.4932890750        1.9555316863        1.6772375189
 H          4.1186433540        1.2456909384        2.2325446915
 H          4.1418219489        1.8824141487        0.7764812538
 O          1.3370939747       -1.4600490528        5.3791196326
 H          1.0035374181       -0.7817837088        4.7492562751
 H          1.3325729027       -1.0562001289        6.2453154275
 O         -1.2635933419       -2.6619185187       -3.4722256734
 H         -1.5485873237       -1.7350346142       -3.2501701726
 H         -2.0493626825       -3.1786828010       -3.7162273904
 O          2.8664023520        1.7694564178       -3.3034684576
 H          1.9209155062        1.4799673603       -3.2525145437
 H          3.4036386923        0.9740854510       -3.0817618245
 O          1.4837064216       -3.1116817327        0.1568582713
 H          2.2264601119       -3.0222034890       -0.4741785524
 H          1.7609217754       -2.6614210234        0.9719607798
 O          1.9820003073       -1.5398600593        2.2368549477
 H          2.5958506243       -0.9434638198        2.7258376693
 H          1.1042451850       -1.4462463399        2.6417343262
 O          1.6368418478        5.4738159408        3.2208295595
 H          1.7175031844        6.3644997141        2.8387052538
 H          2.4245927358        5.0056369848        2.8966983594
 O         -0.1854861378        3.1253558805        4.1712012689
 H         -0.1198165588        4.0217610766        4.5352618686
 H          0.6330313342        2.9800049053        3.6559256030
 O         -2.0646229978       -3.8897965176        1.3982753278
 H         -1.4580693074       -3.3253437223        1.9314311003
 H         -1.6999972980       -3.8848882445        0.5038203109
 O         -1.6850353213        1.2070878826        2.6948917984
 H         -2.3242171147        1.4056646916        3.4063869784
 H         -2.0775224110        0.4664351484        2.2076008192
 O         -2.5124348928       -1.4747153640        4.1811698765
 H         -3.0017153689       -1.0520310266        3.4408229093
 H         -2.8949649818       -2.3534563087        4.3224199626
 O         -3.7530106852        1.2580697910        4.3829741435
 H         -3.6727637409        0.6616267892        5.1524218572
 H         -4.1575414571        2.0686978802        4.7519829560
 O          0.5822158078        0.2813454086        3.6003158085
 H          1.2171516664        0.9846483803        3.3979674523
 H         -0.2950996112        0.6378689852        3.3585725674
 O          3.6463042409        0.0496585943        3.4031753623
 H          4.3971512432       -0.4944495977        3.7172678146
 H          3.2728348906        0.4740195352        4.2024563610
 O         -1.8077493349        2.4839929219       -1.2577985490
 H         -1.6450251892        1.5471967754       -1.0371536538
 H         -1.5015757621        2.9744258907       -0.4716509258
 O         -3.5532298255        2.7003891016        1.3034925473
 H         -3.2770985176        3.0321645840        2.1880289702
 H         -3.0073904624        1.9357890807        1.1003597765
 O         -3.5352352611       -0.5930065229        1.9269459159
 H         -4.2352027605        0.0452315088        1.6914993434
 H         -3.9053645909       -1.4734709463        1.6917160874
 O          4.3288293417       -1.0701498739        0.6119447994
 H          4.9604514795       -0.7158812661        1.2555607138
 H          3.9795484561       -1.8883541168        0.9930098873
 O          6.4566462855       -0.0693386366        1.9402678290
 H          6.3160644935        0.4727006294        2.7422732717
 H          7.2975248060       -0.5258795210        2.0153451529
 O         -1.8438982258       -0.2025447929       -2.8961414967
 H         -0.9917023054        0.2686333972       -2.9071384690
 H         -2.4384802521        0.2803942924       -3.4934212912
 O          4.3576812692       -0.1536139761       -2.4054274322
 H          4.0243053387       -0.9926659933       -2.0271801436
 H          4.9182981601        0.2627364349       -1.7248186504
 O         -2.2576524671        3.5290068884        6.1970982552
 H         -2.4216363879        3.4961645471        5.2315129384
 H         -1.5997918394        2.8548669739        6.3898100249
 O         -3.1501410753       -2.1101662432       -0.7609144491
 H         -2.2549182516       -2.4335180426       -0.9317307750
 H         -3.6696464928       -2.9200939172       -0.6211250190
 O          3.5394616561       -2.5689530879       -1.5177292527
 H          4.2142462079       -3.1276135426       -1.1026148154
 H          3.4360302415       -2.8666577483       -2.4407469965
 O          5.2050611616        0.1229886148       -5.0059732745
 H          4.9398295302        0.0570098717       -4.0684063794
 H          5.6446386902       -0.7348288603       -5.1892279480
 O         -3.3442313244        1.4236355816       -4.4939243245
 H         -3.3543239702        1.3575471079       -5.4632128467
 H         -2.8197153556        2.2196865066       -4.2575330812
 O         -3.0742926437       -4.1568806146        4.6068488873
 H         -2.7812159098       -4.9406506777        4.1150741948
 H         -4.0270102115       -4.0657190191        4.3855608901
 O         -4.4647187925       -0.8809763162       -2.6668229245
 H         -5.3108882195       -1.3690794121       -2.6177539253
 H         -3.8965456517       -1.2937399109       -1.9760464236
 O         -5.9544174204        0.1359130423        3.3835870065
 H         -5.1147380887        0.5873219676        3.6099270781
 H         -6.1296007676       -0.4726982679        4.1303982435
 O         -5.3925833852        0.8012166834        0.6319569739
 H         -5.0067539178        1.2685178775       -0.1349793245
 H         -5.6006488826       -0.1040493703        0.2908653903
 O         -4.5962709814       -2.9574890765        1.5625735129
 H         -3.7617397895       -3.4544050371        1.4820827434
 H         -5.0133305202       -3.2110681029        2.4061038297
 O          1.9418095061       -0.6343008829       -4.7511939434
 H          1.1691104202       -1.0972050486       -5.1306341914
 H          2.3902760176       -0.1977429073       -5.4936940990
 O         -0.6157948454        1.6493240286       -5.6797756302
 H         -1.1823511306        0.8568349733       -5.7674945452
 H          0.0509049147        1.5090072104       -6.3660645576
 O         -5.9559456090       -1.5101896673       -0.3605920004
 H         -6.9187814817       -1.6947846069       -0.3567718350
 H         -5.5427821770       -2.1694048004        0.2174559355
 O          5.1774958362        5.8431486128       -0.0531835477
 H          5.8676493886        6.0789792695        0.6010369733
 H          5.3826878254        4.9204930969       -0.3417600099
 O         -2.4817426319       -6.1305667653        2.7218469443
 H         -1.9303376684       -6.8429398155        2.3823689663
 H         -2.2514578157       -5.3425333244        2.1775883220
 O          2.2873956186        5.5691593664       -3.2530587246
 H          3.1559013211        5.1664593050       -3.4305288965
 H          1.6720102720        5.1629047441       -3.8985747658
 O          6.0953259772        0.9157590338       -0.5789271182
 H          6.9814506107        1.0515963267       -0.9645112928
 H          6.2230549970        0.6055817922        0.3343741714
 O         -0.4457824428       -2.4466811715        2.8717092047
 H         -0.0028599128       -3.1256050504        3.4104182260
 H         -1.0958342809       -1.9847235993        3.4407819933
 O         -4.9606665859        3.0985383544        5.8734419428
 H         -4.1643906576        3.3684880041        6.3498716896
 H         -5.4017178311        3.9303175257        5.5755425681
 O          5.1033993570       -4.4063263844       -0.3056814266
 H          5.7795342024       -5.0152259772        0.0275841942
 H          4.2566110030       -4.8613612959       -0.2253507359
 O          6.3172255513       -1.9012431820       -0.9613986385
 H          6.5176378514       -1.2202955957       -1.6278541179
 H          5.5373557630       -1.5960463638       -0.4422063162
 O          6.1605491464       -3.5871297174       -3.0126470955
 H          6.0323987838       -3.0486687196       -2.2017131046
 H          5.5434457708       -4.3443883731       -2.9471847396
 O          3.7329509865       -3.4432984050        1.8769271118
 H          4.7068052744       -3.3876786833        1.9235384380
 H          3.5365135385       -4.3860057327        1.7092391221
 O         -3.9747272776       -1.7592801950       -5.0762198913
 H         -4.8803564992       -1.6576807874       -5.4261691103
 H         -4.0262168225       -1.3584684478       -4.1681222048
 O          0.7063482249       -5.2345799093        1.5307460043
 H          0.6817933564       -4.9716582894        2.4615753774
 H          0.9555314645       -4.4478117742        0.9984570476
 O          0.8123064101        3.5791045137       -1.8710788057
 H          0.1339266876        4.1839940050       -1.5102523534
 H          1.4595425694        4.1593816475       -2.2883986249
 O          0.0212027751       -2.2117455008       -5.7117597434
 H         -0.6537956053       -1.6577096955       -6.1405266202
 H         -0.3834527227       -2.4371993415       -4.8330826858
 O          4.0347571582        4.5551552972        2.1851605093
 H          4.2080744940        3.6041483902        2.0509639497
 H          4.2591753682        4.9857490648        1.3484291697
 O         -2.9330480781        3.9368402764        3.5739024204
 H         -2.1173455554        4.4136721713        3.3356723534
 H         -3.6536399288        4.5753552941        3.4076651462
 O          3.8975539218        3.3082835495        4.7491790401
 H          3.6857285203        2.5042801504        5.2652067834
 H          3.3186669080        3.9744395324        5.1676803386
 O          3.1730171423       -2.9731575951       -4.1185781615
 H          3.6663352125       -3.3496496427       -4.8752033869
 H          2.8566000833       -2.0872114877       -4.3757162934
 O         -7.4905659773       -1.6430081101        2.0289614489
 H         -6.7387769040       -1.1615179267        2.4050448008
 H         -7.8657368421       -2.1896855504        2.7516049477
 O         -3.9841893458       -4.6889795407       -0.7071381363
 H         -4.3771557527       -5.1967412196        0.0362238604
 H         -3.2064347566       -5.2212985457       -0.9789300509
 O         -1.7395730938       -6.0164201506       -1.2973805406
 H         -1.4664431263       -6.6193692915       -0.5702615649
 H         -1.2433234424       -5.1829659129       -1.1536555743
 O          5.5534081323       -1.5609344191        4.3533096429
 H          5.7121312395       -2.1669046094        3.5890305467
 H          6.3921663874       -1.0592225397        4.4257322021
 O          0.8703096367       -4.4677595517        4.1976712914
 H          0.3593155732       -4.2506702166        5.0007732732
 H          1.7328831824       -3.9905493011        4.2841005500
 O          0.3586911528        1.6827535435        6.2871447004
 H         -0.1587763280        0.8579833519        6.2864750789
 H          0.1324878470        2.1475533188        5.4389673041
 O          2.5546547264        6.0774735919       -0.5638461656
 H          3.5208199265        6.0892957565       -0.4326877656
 H          2.4049993056        6.0482116570       -1.5199600079
 O          5.6287256123        3.4914523916       -0.9849197218
 H          5.6896249629        2.5440440265       -0.7595758072
 H          5.3373367051        3.5307028055       -1.9026833491
 O          4.4302978391        3.9637264515       -3.5329639008
 H          4.9025136914        3.6825641936       -4.3400152693
 H          3.8680477434        3.1942417001       -3.3271360598
 O          1.0674252609       -4.1214967627       -2.9811280654
 H          1.7753746030       -3.9390917167       -3.6268484530
 H          0.3921021286       -4.6737887192       -3.4044757338
 O          2.5717354772       -5.3210844541       -1.1397767374
 H          2.1341272402       -6.1529172504       -0.8815704024
 H          1.9518465064       -4.8709494525       -1.7492694444
 O         -6.6466897844        1.0486974997        6.4042705605
 H         -6.0358624093        1.8072588260        6.3475064073
 H         -7.3295709665        1.2531742854        5.7446542441
 O         -7.9434415612        0.9349424990        1.1919104491
 H         -8.0431379839        0.0324596811        1.5417117523
 H         -6.9764873736        1.0426046554        1.0466921935
 O         -6.0942891129        3.4304312576        1.5209141732
 H         -6.5876150816        3.1694900538        0.7240864327
 H         -5.2857422647        2.8894247649        1.5189100002
 O          8.1685751833       -1.9803244681        0.8785915607
 H          7.5441228233       -1.8936463819        0.1116779485
 H          8.6262294625       -2.8236098778        0.7238374660
 O          6.2714766694       -3.0626724013        2.3537150519
 H          6.6277197534       -3.9396318779        2.6039404503
 H          6.9628640449       -2.6158179162        1.8192869320
 O         -0.9261794523        5.4472478129        2.6177633456
 H         -0.9613400053        6.2351786996        2.0351961902
 H          0.0130313829        5.3833248447        2.9087795518
 O         -0.8795315887        5.4728295238       -1.0826147359
 H         -0.7875235570        6.0734074355       -1.8478669167
 H         -1.8156677647        5.2086887446       -1.0118441570
 O         -7.2628087253        2.8791490908       -0.8565603940
 H         -7.1429143878        2.0450739371       -1.3573482734
 H         -8.1532923399        3.2131501307       -1.0523876562
 O         -4.3014542625        1.6171341883       -1.6274956298
 H         -3.4001246034        1.9722078021       -1.5007876019
 H         -4.2306760481        0.7583188573       -2.0897548708
 O          0.5728765668        4.2307614799       -4.7710467551
 H          1.0691487337        3.5817417540       -5.2974262667
 H         -0.2062203482        3.7891248066       -4.3707091766
 O          3.1251950509       -3.1446066867        4.3867745299
 H          3.2641269609       -3.0569086886        3.4097935633
 H          2.6297405318       -2.3592227290        4.6963023996
 O          6.9413110440        2.8036791967        1.8664832333
 H          6.7452339521        3.4045440417        2.6160615447
 H          6.0780107803        2.3839146273        1.6662502058
 O         -0.7433093990       -7.3267564889        0.7826574626
 H         -0.2361106689       -6.5502316146        1.0969498500
 H         -0.0707768278       -7.8803097375        0.3671904874
 O         -9.5784214689        0.6400342755       -0.8325511767
 H         -8.8584859135        0.8488343829       -0.1969224635
 H         -9.4443886724        1.1640590589       -1.6360940994
 O          7.2133576049       -0.3712802668       -2.9623552351
 H          6.9415495792        0.5689525883       -3.0541814806
 H          7.5978276565       -0.6401003503       -3.8135180283
 O         -1.0658410552       -5.7487289657       -3.8630133440
 H         -1.3179414611       -6.0296600588       -2.9586567053
 H         -1.8632094278       -5.3106266033       -4.1973558595
 O          9.6511949254        0.2999108974        0.6771570529
 H          9.3974165110        0.5790099087        1.5766038662
 H          9.3057556432       -0.6046623729        0.5552059926
 O          8.8257672201        1.4077603050        3.0230105045
 H          8.0335846799        1.8324195509        2.6046988107
 H          9.5535406231        2.0276526240        2.8207782007
 O          6.7793165815       -6.4342978517        0.4909017654
 H          7.1194245153       -6.5061444441       -0.4286923672
 H          6.0369416922       -7.0685035041        0.4833109387
 O          8.5818929405        1.5132551493       -1.4105588249
 H          9.0263539593        1.0982216730       -0.6390939210
 H          8.6174114473        2.4696536911       -1.3074313145
 O          8.6995626976       -3.8149694421       -2.2153455638
 H          8.9186080201       -2.8843334752       -1.9398078548
 H          7.7682369628       -3.7616426340       -2.5211685663
 O          6.3699813900        4.3593070602        3.9633296621
 H          6.8991370445        3.8563271192        4.6122151951
 H          5.4373509289        4.2000366099        4.1819359618
 O         -0.7108616667       -3.4151421021        6.1059915370
 H         -1.5211168141       -3.6497075004        5.6332430235
 H         -0.6510784094       -2.4448007768        6.1091586506
 O          5.9606923040        1.3940833103        4.1056885761
 H          6.1017345600        1.1106012590        5.0262642435
 H          5.2565901214        2.0478134649        4.1118411290
 O          8.5829082091        4.2748678939        0.4550133284
 H          7.9179447860        3.6646304477        0.8411625149
 H          8.3605590579        4.3555079600       -0.4913722397
 O         -3.9033809039       -0.1306098911        6.6893687196
 H         -3.9301036904       -1.1026291811        6.7765033000
 H         -4.7554158727        0.2019129946        6.9841845655
 O         -1.1910069003       -0.5696313321        6.3121823923
 H         -1.6204903146       -0.7419828411        5.4512596253
 H         -1.9229103954       -0.3220934124        6.8872459283
 O         -5.2734437724        3.4998175001       -3.1630732828
 H         -5.3868884137        4.2717952424       -2.5987325181
 H         -4.9218610535        2.7818608868       -2.5922436543
 O         -1.7923001136        3.4490539973       -3.6946781293
 H         -2.2868565865        4.2914895592       -3.6295544409
 H         -1.7149247019        3.1243442984       -2.7725317881
 O         -3.3985530870        4.7627027171       -0.3517809631
 H         -3.3386746801        5.5628731102        0.2123109051
 H         -3.4144725355        3.9789902700        0.2402673567
 O         -5.9084793849        5.1659358286       -1.0377485723
 H         -4.9666993853        5.0314469520       -0.7663100660
 H         -6.3419464957        4.2939194500       -0.9138998625
 O         -7.0599260189        0.5387398068       -2.1269544881
 H         -6.5731544060        0.7486423440       -2.9578450669
 H         -6.5272150527       -0.0983684788       -1.6369962138
 O         -9.5816891137        3.0406093285        1.5267026586
 H         -9.1763314737        3.6332350198        2.1857497583
 H         -8.9494534826        2.2967240715        1.4307253296
 O         -7.9225772357        4.4298406317        3.0928386659
 H         -7.1785234666        3.9917535053        2.6154777614
 H         -8.0521278063        5.2353303566        2.5655923516
 O          8.0619199087       -0.8185267223        4.5910829929
 H          8.4429162329       -1.6852780559        4.3739702652
 H          8.5604621640       -0.1614602567        4.0821593729
 O          9.2887898234       -1.3421309583       -1.5825711838
 H         10.1157849533       -1.0021822502       -1.9576401085
 H          8.5595829405       -0.8577080007       -2.0167199636
 O         -8.0933485306        1.6072007209        4.0527003449
 H         -7.2998802434        1.1800220624        3.6510481566
 H         -8.0326046972        2.5511756374        3.8818381646
 O         -0.7031339272        7.3813448127        0.8448613079
 H         -0.5972155328        6.7647054296        0.0908219897
 H          0.1740416923        7.7232256451        1.0654048986
 O         -6.7079174576       -2.3563081385       -2.8521585969
 H         -7.4418162044       -2.3076015332       -2.2197583209
 H         -6.3343856285       -3.2562709418       -2.7814246776
 O         -8.5587183024       -1.8611558985       -0.7943373142
 H         -9.1053433429       -2.1577057572       -0.0400792741
 H         -8.9456258841       -0.9943540127       -1.0110541957
 O        -10.0673719546        0.0745488886        2.8982983563
 H         -9.4116413973        0.7394074386        3.1876103021
 H        -10.7335301134        0.5368000353        2.3651885243
 O        -11.5349139664        1.3568787446        0.8526971598
 H        -11.1114912151        2.1507924327        1.2128296235
 H        -10.8675409383        0.9834737541        0.2301309623
 O         -5.9928603374        1.1314066494       -4.4517704516
 H         -5.0345610106        1.3059795691       -4.3643507628
 H         -6.4557998452        1.9929760218       -4.5541701341
 O         -2.0046942623       -0.5819251912       -6.3723487009
 H         -2.7232116765       -1.0249745592       -5.8634831236
 H         -2.4524459093       -0.0977942770       -7.0739593737
 O          4.5669194908       -5.7619460021       -2.8071380983
 H          4.1105553730       -5.8836300278       -3.6539199947
 H          3.8436378435       -5.5426585252       -2.1692002136
 O          3.2351423262       -6.0548679385        1.5607851051
 H          3.2210765031       -6.4133334903        2.4770756753
 H          2.2862047396       -5.9404947702        1.3478584614
 O         -5.5370404825       -4.7674253322       -2.7878099418
 H         -4.9222831578       -4.6425237018       -2.0126889743
 H         -6.1190877225       -5.4711414029       -2.4539542491
 O          6.3302892894       -2.2595301402       -5.3376885084
 H          7.2601064396       -2.0402792382       -5.4672063458
 H          6.2630120895       -2.7346363766       -4.4779012075
 O         -7.1911312900       -3.9521299957        0.6348733807
 H         -7.2823879684       -3.0931930787        1.0919660296
 H         -8.0297624646       -4.1056256095        0.1552849119
 O         -6.7023157735       -6.2609836799       -0.8838262393
 H         -6.1101785497       -6.8729691754       -0.4391369998
 H         -6.6829987632       -5.4603882638       -0.3350880021
 O          5.2303646873        2.7736100618       -5.8253385679
 H          6.0978417787        2.9215399242       -6.2090921240
 H          5.2634698211        1.8621560593       -5.4744526318
 O          8.8520309991       -3.4333910539        3.9706651559
 H          9.6195567096       -3.4188228997        3.3860538042
 H          8.3532530471       -4.2244365064        3.7181012832
 O          2.4959828844        2.6223663771       -5.8162772832
 H          3.3026173631        3.1046961772       -6.0321025693
 H          2.6516785591        2.2564808944       -4.9141199232
 O          2.9703840665       -5.8153449744       -5.0278785419
 H          3.6262473578       -5.4022311720       -5.6051687311
 H          2.1167796275       -5.5156374447       -5.4027101609
 O         -3.3216555913       -4.2258980739       -4.3510934085
 H         -3.6279420462       -3.4094696020       -4.7965733461
 H         -4.0819950082       -4.5599485451       -3.8520900802
 O         -9.7162881304        4.0760672656       -0.9261187577
 H         -9.7306922834        3.7732948957        0.0118509707
 H        -10.5421970120        3.7593474817       -1.3080871866
 O          6.6503016507        2.1846438281       -3.3841317691
 H          7.0374750483        2.1894115838       -4.2722507044
 H          7.1323972263        2.8565197244       -2.8726315756
 O         -4.7759428721        5.6132400215        2.5921614961
 H         -4.3964328238        6.2965031283        2.0178174561
 H         -5.2952387321        5.0070577947        2.0369069425
 O          9.7672644914        1.2712359978       -3.8518003141
 H         10.5621051563        0.7822737619       -3.5850307541
 H          9.2239564836        1.3174652799       -3.0322465802
 O          5.0211700229       -5.0843528022        4.7602966730
 H          5.6474900417       -4.6988686122        5.4056655345
 H          4.4293483083       -4.3465000499        4.5380588374
 O          8.7511908538       -0.9377117775       -5.1203610826
 H          9.3519889218       -1.6849121044       -4.9026372900
 H          9.2298135247       -0.1441968385       -4.8229276898
 O         -5.5735795715       -3.5843097003        3.9812375349
 H         -6.0388424592       -2.9433303934        4.5407106261
 H         -6.2172776219       -4.2781417777        3.7363279712
 O         11.5849333222        1.7055565879       -0.6730609561
 H         12.2879465265        2.0004166061       -0.0927153800
 H         10.9522255478        1.2263241429       -0.1012061054
 O         -7.9300143398        5.8861905022        0.7779278449
 H         -8.6695281279        5.6732405602        0.2034307632
 H         -7.1340133517        5.8086194429        0.2296882967
 O         10.5754207893        3.1408778684        1.9040754263
 H         10.0080036523        3.5253121552        1.2073284781
 H         10.4796570462        3.7750677781        2.6351312220
 O         10.8304689954       -3.1008251832        1.9432228775
 H         11.3681875597       -2.5414288327        1.3520510200
 H         10.3430197737       -3.7123507637        1.3710200030
 O          2.8996888553        1.0700366114        5.7424784553
 H          1.9783558228        1.2675403352        6.0263381096
 H          3.2802868915        0.3727053202        6.3069994524
 O         12.1283798351        0.8510502678        2.0350501283
 H         11.6180112424        0.3443262322        2.6932558157
 H         11.6949553959        1.7183128145        1.9978501327
 O         -4.7735189636       -6.3305224780        1.2431490484
 H         -3.9861933987       -6.3905756361        1.8145141055
 H         -5.5172785493       -6.1560779191        1.8413482227
 O         -9.6719996340        2.0414250696       -3.2667413422
 H        -10.4941850159        2.3792262933       -2.8736931224
 H         -9.9450516139        1.4278739051       -3.9557755380
 O         -7.6582858419        3.1748494673       -4.7399677772
 H         -7.5134678017        4.0183043170       -4.2753052691
 H         -8.3892971386        2.7878465548       -4.2270459109
 O         -9.0791069986       -0.7691900511       -3.4057887889
 H         -9.0369224445       -0.4421850357       -4.3198657364
 H         -8.3669194239       -0.3075837445       -2.9180399262
 O          3.3442811432        0.3104954337       -6.8743437944
 H          4.1422028569        0.2055698018       -6.3106213559
 H          3.0497341367        1.2300801832       -6.7228728893
 O          4.4387172197       -7.6340283336       -0.2242658500
 H          3.9667793122       -7.0531235719        0.4112347547
 H          4.4807629152       -7.1734010443       -1.0690841423
 O         -6.5949156975       -1.2963710788       -5.3386416050
 H         -6.8025633130       -1.7155374059       -4.4780994541
 H         -6.3579763206       -0.3791957614       -5.0870481875
 O        -10.2638679160       -2.1409840484        1.2324069577
 H        -10.0845275894       -1.4382035901        1.8761569609
 H        -11.0640333287       -1.8571464791        0.7362326588
 O         -6.6735700469       -1.4611661991        5.3974283539
 H         -6.5582543766       -0.7138338748        6.0102577988
 H         -7.6385335467       -1.5453613526        5.2936491431
 O          8.1210338641        4.1828327241       -2.1818293836
 H          9.0348700095        4.2960324338       -2.4994502310
 H          7.5776865121        4.9665905933       -2.4189436808
 O         -2.2277838985        3.6756527109       -6.6990371742
 H         -3.0132755896        3.8933165918       -6.1653941356
 H         -1.6308165616        3.1307443028       -6.1538362075
 O         -6.1012534775        5.2760832992        4.9458842941
 H         -5.5508101292        5.6220111135        4.2259479060
 H         -6.9318607010        5.0197660241        4.5137926870
 O         -4.6090011404        4.2418288815       -5.5153911652
 H         -4.8497278797        3.8452048917       -4.6354175408
 H         -5.4403717323        4.4055437710       -5.9578283964
 O          1.9338240909        4.3407028843        6.2004168064
 H          1.4477070485        3.5881330334        6.5495691768
 H          1.2740253909        4.9911509288        5.9284631347
 O          7.1076317083       -5.4569468000        3.0619932027
 H          6.3382414399       -5.5934271970        3.6497165346
 H          6.9833474193       -6.0031781731        2.2721227112
 O          2.4609119497       -2.2924622077       -7.3849687930
 H          1.6598855715       -2.3522625943       -6.8509047313
 H          2.8219229962       -1.4011781461       -7.2794306251
 O         -6.9445223950       -5.5317735598        2.7063865182
 H         -7.8125705706       -5.8560696961        2.9464999312
 H         -7.0889970385       -4.9268323852        1.9310285195
 O        -11.6686187498       -0.2889272979       -2.6675953435
 H        -12.0508626604       -1.1561309608       -2.9038741791
 H        -10.7132479543       -0.4115688587       -2.8295302398
 O          4.1922844120       -1.0615918310        6.7247316088
 H          4.5360746833       -1.3901905741        5.8785828531
 H          3.6765830191       -1.7967801576        7.0977637618
 O          6.5592970548        0.4930267680        6.5709042006
 H          7.2161734285       -0.1481256743        6.2680903811
 H          5.8017745127       -0.0119473345        6.9007129784
 O          1.3313641468       -7.2638902998       -3.2707148756
 H          2.0061564643       -6.9142947139       -3.8672443293
 H          0.4825401570       -6.9805470308       -3.6229624055
 O         11.6066108833       -0.1778179155       -2.5863894288
 H         12.2146739439       -0.9127271001       -2.4822250714
 H         11.7743223971        0.4680893851       -1.8703843196
 O         -3.0975021673        5.7943254928       -3.7637741648
 H         -3.8205053524        5.5094456949       -4.3420055692
 H         -2.4034559338        6.1209899598       -4.3732289970
 O        -11.9351804940        2.3216656693       -1.7737787865
 H        -12.0639065169        2.1526071871       -0.8273926816
 H        -12.0869179244        1.4543691348       -2.1864950571
 O          7.0459130340        6.0765532891        1.8533529485
 H          7.7439139652        5.5715342840        1.3931346464
 H          6.7592572091        5.5384004886        2.6080684476
 O         10.6928703611        3.6078632304       -2.6316147820
 H         11.0576465697        3.1286330240       -1.8742781061
 H         10.5325498587        2.9336461934       -3.3070109748
 O         -8.4410781290       -3.3826177241        3.8085776736
 H         -9.0508483968       -2.9661261921        4.4228587188
 H         -8.9703915743       -3.9493185150        3.2183733173
 O         -0.5165598150        5.5011148700        5.5307317847
 H         -1.2322425247        5.0028595634        5.9690554503
 H         -0.9209626704        6.1257551330        4.9265905847
 O         -9.2163925372       -4.8757206489       -0.8507622268
 H         -8.7222762689       -5.6515853783       -1.1336394526
 H         -9.3335461617       -4.3208911233       -1.6494429597
 O        -12.2908307501       -1.1532065962       -0.1435084298
 H        -12.0266295453       -0.8065750553       -1.0209999492
 H        -12.5703274815       -0.3888946698        0.3671084512
 O         -9.4017621701       -3.4770907739       -3.1542097964
 H         -9.2723984728       -2.5102881725       -3.1999618811
 H         -8.8510473767       -3.8537343277       -3.8618720329
 O          6.7325535758       -3.4496096706        5.9965084483
 H          6.2872635591       -2.7181253615        5.5359204138
 H          7.6107254017       -3.5082466804        5.6098143152
 O          4.3785199386       -3.8649676852       -6.3257468161
 H          5.1821567435       -3.3278148946       -6.2579448084
 H          3.7458677201       -3.3863493454       -6.8962474316
 O          9.0490262989       -4.4963556160        0.3334146327
 H          8.4443054123       -5.1883606958        0.6171189031
 H          8.9119471543       -4.3916893461       -0.6357930179
 O         -7.4615006498       -4.2285070893       -4.9645597437
 H         -7.1909950984       -3.4679667307       -5.4853533591
 H         -6.6946959619       -4.5195635177       -4.4594924794
 O         11.7917181271       -2.8661420167       -1.7726279812
 H         11.8509708938       -2.3405306436       -0.9605228268
 H         11.2200036974       -3.6096787078       -1.5722599905
 O          8.0690221394        2.7297406520        5.3548039064
 H          8.2967065772        2.1103492321        4.6337292600
 H          7.6808060587        2.1949012453        6.0537963521
 O         10.2798830477       -2.9131577669       -4.2305760450
 H         11.0363269071       -2.7072674064       -3.6698884802
 H          9.6915667444       -3.4419914042       -3.6622857449
 O         10.6289265806       -0.8537346342        3.5213516814
 H         10.6138776932       -1.6383396421        2.9468628181
 H         10.9923678511       -1.1321204783        4.3609862988
 O         -3.5997649024        1.4597017660       -7.2379125489
 H         -4.5007526811        1.6888337154       -7.4616693650
 H         -3.0667446510        2.2845880382       -7.3046464382
 O          6.2531493548        6.0234576844       -2.6369342029
 H          5.9152606097        6.2298811501       -1.7502598422
 H          5.5913802749        5.4492984837       -3.0403467051
 O         -7.9109498003        5.2629594059       -2.9904827276
 H         -7.2112246070        5.4566687696       -2.3544903674
 H         -8.6715180816        4.9817999792       -2.4705950099
 O         -3.4216369328        7.1538249633        0.7923398392
 H         -2.5184691665        7.4835157033        0.9039701237
 H         -3.7165497779        7.4658519429       -0.0887767525
 O         -4.1965047491        7.3967715024       -1.7625251234
 H         -5.0537504551        6.9666893578       -1.7080088282
 H         -3.6879187260        6.9012323131       -2.4258134564
 O          0.6484741918        0.2813400422       -7.6435689025
 H          1.5928052834        0.2505021821       -7.8208263539
 H          0.2523707776       -0.4822133917       -8.0625426440
 O          1.9636537857        7.6283953632        1.5842382295
 H          2.8294459077        7.7879279424        1.9951847061
 H          2.1627076019        7.1591145935        0.7554204478
 O         -0.1672404948        7.0723189017       -3.0918053288
 H         -0.5172262068        7.0660772653       -3.9870575141
 H          0.7791015834        6.9083557668       -3.1571654800
 O          0.6028551184       -4.9216413894       -5.9302327967
 H         -0.0986179395       -5.3459958778       -5.4239687407
 H          0.3820584457       -3.9799298995       -5.9830413271
 O         12.3014221814       -1.3126357927        0.4804550300
 H         13.2349021049       -1.4753854649        0.6174539013
 H         12.1166202438       -0.4596918074        0.9431313422
 O          1.5890015106       -7.7837086278       -0.6498163643
 H          2.4503145538       -8.1909194808       -0.4976111213
 H          1.4333618723       -7.7972958228       -1.6130259583
 O         -1.1807803290        6.0413198244       -5.6117657482
 H         -0.4040006553        5.5054034160       -5.3585139200
 H         -1.6312557574        5.4721247747       -6.2537559128
 O         -8.7377605415        0.4918926785       -5.7767075811
 H         -8.0683869624       -0.1497703327       -6.0514061748
 H         -8.3123833306        1.3555648518       -5.7632924195
 O          4.4229886758        7.2380884871        2.7352178792
 H          5.3284251984        7.3165640582        2.4270032553
 H          4.2900244938        6.2980204471        2.9166057117
 O          7.9044358382        1.8984262594       -5.8182682473
 H          7.7925482545        0.9840871013       -6.0959659263
 H          8.7574076934        1.9336465417       -5.3654440547
 O         -9.8683623692       -4.7026722839        1.9205050316
 H         -9.7400322916       -5.1130011094        1.0578707490
 H        -10.1904153801       -3.8069562864        1.7011053280
 O        -12.0509469992       -2.9249660862       -2.6569228274
 H        -12.1605619197       -3.0364043173       -1.7096326290
 H        -11.1709757835       -3.2716109464       -2.8803371385
 O         -9.4029228947       -1.1968971631        5.1903991293
 H         -9.7255542289       -0.8121610160        4.3540977031
 H         -9.5509227379       -0.5288733582        5.8598645019
 O          2.8193089562       -6.6184705365        4.0974074751
 H          3.5897481124       -6.2311606594        4.5383227769
 H          2.0588039233       -6.0490214220        4.2762833892
 O         -3.5280579074       -2.7857396349        7.0235755726
 H         -3.6127467635       -3.4223032488        6.3030582995
 H         -2.6534704769       -2.9169896737        7.3978492661
 O          7.2035834695       -6.4415217523       -2.1198141592
 H          6.3084305637       -6.2808124580       -2.4593635900
 H          7.7887561475       -5.8123286549       -2.5459817883
 O          9.4338869272        4.6216883218        3.8119869731
 H          9.0662187309        4.0829769839        4.5240932311
 H          8.7551468850        5.2498220228        3.5568050649
 O          2.5893185673       -3.2571481752        7.1776815022
 H          1.6364911134       -3.2559875782        7.0551619020
 H          2.9618824778       -3.7050502942        6.4118013877
