  146

 H          0.4630927076        1.1941025327        0.8323452959
 C          0.5529035760        0.5095402431       -0.0251092074
 H          0.4633421182        1.0989800596       -0.9466436095
 C         -0.5779259333       -0.5149488605        0.0205351875
 H         -0.4518492549       -1.1270258238        0.9278134321
 H         -0.4840892690       -1.1748678656       -0.8448928487
 N         -1.8603253885        0.1647702475       -0.0623309412
 H         -2.6131021662       -0.5138473280       -0.0751527666
 H         -1.9956541840        0.7570092262        0.7508171930
 O          1.7808081026       -0.1833448059        0.0209869107
 H          2.5006908393        0.4507195084       -0.0567171282
 O          5.8062715759       -2.0995307127       -0.0002379931
 H          4.9266629401       -2.2329474219        0.4069790329
 H          5.6658312125       -2.2433100572       -0.9456214419
 O         -1.8777879305        2.1748940927       -1.7654414801
 H         -1.3512350400        1.8452938416       -2.5201323447
 H         -1.8866266543        1.3982659071       -1.1240683227
 O          2.0069949874       -1.8430046792       -2.0848898427
 H          2.0930570664       -2.7604361863       -1.7202702312
 H          1.8506687758       -1.2852439695       -1.2972431897
 O         -1.9443630482       -2.6286769336       -1.9785535451
 H         -1.2571855837       -2.7087091903       -2.6534030974
 H         -2.4682853768       -1.8714029113       -2.2910482154
 O          4.2625795699        0.4722082548       -0.7548544845
 H          4.4761422872       -0.3839029414       -1.1781492076
 H          4.8214437231        1.1162135600       -1.2466928034
 O         -0.3291687513       -3.8613687219        0.1183619209
 H         -0.8507745986       -3.4568531768       -0.5866070143
 H         -0.9799621453       -4.4027671416        0.6430945905
 O          2.2464791355       -4.0753859975       -0.7381922553
 H          2.7493047231       -3.7315600624        0.0117745345
 H          1.3340860868       -4.2112525491       -0.4263069514
 O         -3.2496351787       -0.7088908536       -3.4496588548
 H         -2.6194845900       -0.5628632781       -4.1571580133
 H         -3.6547007736        0.1547004636       -3.2460022885
 O         -0.2421028396        1.0376945714       -3.6145953718
 H         -0.3255405590        0.0651510481       -3.6852026009
 H          0.6807528018        1.1687418074       -3.3252017152
 O         -3.4807401400       -2.7165267021        0.4244391313
 H         -3.0141452178       -2.7509374889       -0.4202124800
 H         -4.4307161781       -2.6346201077        0.2079046318
 O          3.3419986256       -2.2644675292        1.1723196316
 H          2.7551719484       -1.5961971244        0.7882385965
 H          3.6375420499       -1.8686295273        2.0269784893
 O          2.3512728196        1.2466268186       -2.7881354881
 H          2.4356415265        0.3216096975       -2.5247850321
 H          2.5417961022        1.7874946308       -1.9881576642
 O          3.9841400957       -0.8350138111        3.3060313205
 H          3.0955301461       -0.5498196262        3.5646177574
 H          4.3863713775       -0.0753727434        2.8421641156
 O          1.3192054136       -0.0929675162        3.1358475294
 H          1.1338928486       -0.9415160977        2.6949044829
 H          0.4747010066        0.1492742792        3.5492021155
 O         -1.2800889377        0.2507427849        3.9742219770
 H         -1.5598071861        0.2157533006        4.8891827938
 H         -1.8844656763       -0.3411690406        3.4775234942
 O         -3.1250532167       -1.2239460899        2.6480088898
 H         -3.1143521018       -1.7669140760        1.8341669592
 H         -3.6102141989       -0.4109825402        2.3924690091
 O         -3.5932905782        3.1682162343        0.5309544292
 H         -2.8608476362        3.0650192234        1.1680288499
 H         -3.1660144639        3.1438908061       -0.3312101663
 O         -1.5656523685        2.2694220135        2.0436922473
 H         -1.4881456815        1.7543135311        2.8574091281
 H         -0.8518332176        2.9430972728        2.0646512864
 O          0.1049316203        3.9119731255       -0.9839959856
 H          0.2936282253        4.2470514978       -1.8769035370
 H         -0.6691689698        3.3277250854       -1.1103088049
 O          0.7426141275       -2.6473383674        2.2491597353
 H          1.5979645410       -3.0685574965        2.3708306121
 H          0.3566385396       -3.0516056954        1.4380280107
 O          2.5323473013        2.8012445442       -0.6076417531
 H          2.5182588749        2.5209013653        0.3283538667
 H          1.6999517297        3.2992325761       -0.7412606826
 O          5.1045574489        1.1031313228        1.6886808852
 H          5.9473885303        0.6425907011        1.8582424882
 H          4.8266939878        0.7972881281        0.7916112750
 O          7.3996304158        0.2185856780       -0.4920983721
 H          6.8764180335       -0.5947797226       -0.4217278943
 H          7.9388159432        0.2534914056        0.2997901436
 O         -4.4703941721        0.8504617423        1.6597962101
 H         -5.4083002424        0.8223092438        1.9876488255
 H         -4.2526465055        1.7664548572        1.4190398620
 O          2.5305174107        2.0597205529        1.9910958899
 H          2.0754700862        1.2974899270        2.4042370655
 H          3.4753123950        1.9281216215        2.1472241115
 O          6.0429034365        1.9954516053       -2.0506184667
 H          6.7437411400        1.4569406885       -1.6463787786
 H          5.9182074285        2.7563978458       -1.4484244731
 O         -4.6561382916       -0.3231525398       -0.7023419956
 H         -4.5303928674        0.1063754009        0.1729717332
 H         -4.4867617657        0.3556555431       -1.3760331488
 O          5.1985265550        3.5104917654       -0.0000447229
 H          5.3033695326        2.8869444963        0.7310217234
 H          4.2658723257        3.4673236625       -0.2601185126
 O         -4.3550787960        1.6211275455       -2.6355604646
 H         -3.4970392398        2.0263755855       -2.3917400250
 H         -5.0416010907        2.1170504484       -2.1308373281
 O          4.7014370034       -1.5660975135       -2.4694106576
 H          3.7722610212       -1.8398915008       -2.5525465185
 H          4.8612515776       -0.9177445931       -3.1821107980
 O         -0.0316492745       -1.6732112370       -3.7917428777
 H          0.7104101057       -1.7639028526       -3.1487063032
 H          0.4237395145       -1.6812995510       -4.6397888374
 O          4.7163082524        0.6306231700       -4.0789078899
 H          3.9053305485        1.0342545596       -3.7233679494
 H          5.4311649376        1.1331454255       -3.6637754970
 O         -2.2135912140       -4.8789186406        1.6087918139
 H         -1.9932103950       -4.5216313893        2.4927547193
 H         -2.8992692777       -4.2889899635        1.2579428472
 O          0.4586898823        3.9909372245        1.8399177443
 H          1.2792674698        3.4956575756        1.9699952093
 H          0.3881384624        4.1982945310        0.8976408957
 O         -6.0762239112        2.6358797806       -0.8972146259
 H         -5.5368302486        2.9734972005       -0.1732670368
 H         -6.6373439580        1.9212824695       -0.5515025883
 O         -7.2631763439        0.0994119071       -0.4377590610
 H         -6.3095283089       -0.1358185573       -0.5419533331
 H         -7.5990900019        0.0872691849       -1.3481754463
 O         -1.5163025428       -3.3304880891        3.7341649699
 H         -0.6636152487       -3.0428168758        3.3694225334
 H         -2.1369401351       -2.6091119420        3.5807396150
 O         -6.9561478298        0.4225222213        2.3040979695
 H         -6.7832624794       -0.4915604176        2.6011976526
 H         -7.3643559219        0.3434478317        1.4300922482
 O         -5.9398307069       -2.0881719982        2.6937356685
 H         -5.9975444124       -2.5769153276        1.8654353329
 H         -5.0006893343       -1.9678709296        2.8836072590
 O         -6.9893076513       -0.1115469799       -3.1381454102
 H         -6.3136821084        0.5519777159       -3.3028761776
 H         -6.5387512203       -0.9673406435       -3.1262731187
 O         -5.3367924111       -2.4094505300       -2.8467076485
 H         -4.5684333922       -1.8298985156       -2.9936793553
 H         -5.1194184877       -3.2582181430       -3.2323533289
 O         -6.1501204576       -2.6593309072       -0.1921985005
 H         -6.7858835025       -1.9443443408       -0.0634682868
 H         -5.9322495660       -2.6265138134       -1.1399020929
 O          2.1943627797       -0.5894991065       -5.1047263348
 H          3.1514320414       -0.5305519043       -5.0274703175
 H          1.8819319380        0.3118625173       -5.2104344748
 O          6.9390371178       -0.8297773589        2.2086857346
 H          6.5921477548       -1.1917551452        3.0267089167
 H          6.6618821646       -1.4390390126        1.5049808067
 O          0.7715399239        3.8162554531       -3.6312184978
 H          1.6591053244        3.4492690231       -3.6266520542
 H          0.1846498102        3.1197682369       -3.9440154323
