  611

 H          0.4630898756        1.1941038703        0.8323455369
 C          0.5528995686        0.5095395499       -0.0251118286
 H          0.4633407863        1.0989791352       -0.9466470882
 C         -0.5779255666       -0.5149486972        0.0205420265
 H         -0.4518508688       -1.1270279982        0.9278099058
 H         -0.4840889049       -1.1748686707       -0.8448959222
 N         -1.8603265231        0.1647690621       -0.0623295963
 H         -2.6131032672       -0.5138481968       -0.0751547086
 H         -1.9956568424        0.7570026771        0.7508126007
 O          1.7808128477       -0.1833426549        0.0209834395
 H          2.5006913050        0.4507171129       -0.0567204031
 O          0.4021072480        2.4330281407       -2.7541204015
 H         -0.5036834584        2.4962031094       -2.4119323961
 H          0.8028214290        3.3212242064       -2.6692741641
 O          2.8546334585        1.4401372393       -1.8618647953
 H          2.0782436958        1.7209891942       -2.3641380602
 H          3.3386011243        0.8194852966       -2.4412482729
 O          1.9877561744        1.1892215366       -4.6452019299
 H          2.0090892623        0.4187483191       -5.2350758932
 H          1.5372064873        1.8907879668       -5.1508852193
 O          1.4211803675        4.8409283208       -2.3882451940
 H          2.1950677740        5.0419904288       -2.9586083001
 H          0.6407669672        5.2967280718       -2.7557660654
 O          4.2177114563       -1.9781833731       -1.1548555488
 H          3.2987961117       -2.2829622208       -1.0764609698
 H          4.6767396765       -2.2928277245       -0.3551292279
 O          3.0924432683       -4.3341424356        0.7287381544
 H          2.7233819760       -4.5392083627       -0.1605471865
 H          3.1367225925       -5.1734935040        1.2188565721
 O          1.6147464589       -2.6048859736       -1.1144225384
 H          0.9554371788       -3.3148809701       -0.9637935881
 H          1.4325888463       -1.8584689533       -0.5278917415
 O         -0.1866532625       -0.0957332209       -3.3596134107
 H          0.6571928424       -0.6017322674       -3.4400684775
 H          0.1019812053        0.8335556525       -3.3432946128
 O         -2.7671889796       -3.6922002005       -1.0719258708
 H         -2.2168495275       -3.2515628404       -1.7537700192
 H         -3.1368889638       -3.0025991014       -0.4946718826
 O         -0.1856981622       -4.5760825885       -0.8366701435
 H         -1.0383979493       -4.3021108603       -0.4703798809
 H          0.2144127151       -5.2330811317       -0.2289604375
 O          4.4598964801        0.3471168284        0.2177728291
 H          5.3257844194        0.5624632621       -0.1797673717
 H          4.2049890132       -0.4375727356       -0.3083111423
 O         -2.1537317164        2.1483854585       -1.8175843275
 H         -1.9898709019        2.8737792054       -1.1906104633
 H         -2.0114823872        1.3354691951       -1.2554535897
 O         -1.1274871073        3.6707027707        0.0965620172
 H         -0.1684821935        3.8897505569        0.0771950966
 H         -1.2400946615        3.0682997379        0.8471689614
 O         -3.5583995467        4.1049935263        1.3342981126
 H         -3.7525916265        4.1319841857        0.3777708281
 H         -2.8143089173        4.7151644518        1.4982868753
 O         -4.3183702792        4.1273251892       -1.2436608641
 H         -5.1847347491        4.4911468653       -0.9801253419
 H         -4.5118117053        3.5061428073       -1.9743249261
 O         -3.9366571787       -2.0500137721        0.7423989322
 H         -4.4605322836       -2.7723393895        1.1398706578
 H         -4.6240489187       -1.4064010030        0.4770678467
 O          2.9467203059       -1.2033857496        2.3053524564
 H          3.0559955102       -0.6122317723        3.0636231202
 H          2.3968216090       -0.7778349836        1.6227065346
 O         -2.6754627017       -0.6080550566        2.5950612621
 H         -3.0041209996        0.2712674033        2.3288368764
 H         -3.1272501550       -1.2318049927        1.9919803538
 O         -1.4744486116        2.0338061028        2.2963901271
 H         -1.2194675320        1.5314235244        3.0866908216
 H         -1.9590767568        2.7857187937        2.6713084861
 O         -4.0012211915        1.4796912713        1.5155155092
 H         -4.2593591503        1.2265289605        0.6088362458
 H         -3.7926191329        2.4293771299        1.4801459238
 O          1.4078416468        4.3009038660        0.1763403013
 H          1.6031738576        4.6215326212       -0.7262596627
 H          2.0154613761        3.5686851367        0.3840450789
 O          0.7114362006       -3.1252482019        1.4830067558
 H          0.7618298573       -2.4745133389        2.1960992571
 H          1.6001292409       -3.4862738034        1.3156526204
 O         -0.0913549442       -1.1688247304        3.2500162789
 H         -0.9980675182       -0.8919598679        3.0201518699
 H          0.4443761157       -0.3532852088        3.2890356220
 O         -1.7821136045       -3.8928030639        1.6658433373
 H         -0.8587224353       -3.5805823301        1.5393864839
 H         -2.2868755266       -3.1987301845        2.1081807330
 O          2.7964157457        2.3130835611        1.2600373182
 H          3.4692587357        1.7434874430        0.8574128619
 H          2.2954477608        1.7858984822        1.9168206931
 O          3.2577752530        1.8430254703        4.8104644038
 H          3.2773157304        2.7996221061        4.9059497973
 H          3.9688624680        1.5971494362        4.1967740304
 O          3.4801084395        4.2598070250        3.0365820121
 H          4.3788378325        3.9938113698        3.3101595616
 H          3.2321881237        3.6338892035        2.3302851949
 O          1.3748099052        1.1189765965        3.1676491514
 H          2.0420315906        1.2534820075        3.8839645840
 H          0.8082668288        1.9098839698        3.2525663189
 O          4.2072668999        2.6258808309       -4.2546919452
 H          4.5383756612        2.7552900510       -5.1705810354
 H          3.3922246116        2.0811411315       -4.3357299100
 O          4.3027189660        3.3538824106       -0.9200718817
 H          5.1753816231        3.2868131305       -1.3609572153
 H          3.7318492145        2.6473814505       -1.3147939077
 O          1.0653456285        0.0563555884        6.0011227090
 H          1.3783452963        0.8871168349        6.4094935279
 H          1.8314423011       -0.3263971824        5.5394910356
 O         -2.8556810844       -0.6541133147       -2.6781894837
 H         -1.9855915640       -0.2380699610       -2.6716656338
 H         -3.3979946138       -0.2292011202       -1.9885991335
 O         -4.4649170389        0.8079416486       -1.0556135772
 H         -4.1395315679        1.5897504996       -1.5156160896
 H         -5.3315839197        0.5645989282       -1.4580774807
 O         -6.4568195972        2.3458557276        0.6403274073
 H         -6.7071597090        3.1679807682        1.1020463268
 H         -6.6420950247        2.5131116994       -0.3007870856
 O         -7.5254042427        4.4725725773        1.9293018675
 H         -7.7302464963        4.0751177705        2.7860176389
 H         -6.7637375664        5.0794564031        2.1024975918
 O         -3.8185188438        2.6901453341        5.6106893110
 H         -3.4946007223        2.0744781559        6.2933907662
 H         -4.3075298966        2.1236807555        4.9669422208
 O          4.8434423053        1.0090215060        2.7942019076
 H          5.1065129388        1.8958444490        2.4715722953
 H          4.7441917063        0.4835759090        1.9804806744
 O          3.5509334749        5.1961435889       -3.9088224157
 H          3.8140272889        4.2487832864       -3.9788617679
 H          4.0945935807        5.5885157755       -3.1993428480
 O         -5.2688762083        1.3990880406        3.8148960180
 H         -4.8987212938        1.4958511106        2.9114063995
 H         -6.1193782444        1.8798197472        3.8395560708
 O         -5.5316655309       -1.2275906349        3.4002774735
 H         -5.3249854462       -0.3407598227        3.7557656266
 H         -5.7112205633       -1.0643190889        2.4482291194
 O          4.5279849773        5.9306006116       -1.4691866637
 H          3.7546969714        6.4499097459       -1.1849686684
 H          4.2976718801        5.0003603006       -1.2546325082
 O          6.3776343037        1.2662391544       -3.5373202069
 H          5.4917455936        1.5807692228       -3.8141135430
 H          7.0238278419        1.6617629578       -4.1606070173
 O          3.9705014017       -0.3426776113       -3.5131788349
 H          3.1883925459       -0.9208880780       -3.5523987042
 H          4.1696926303       -0.1002343928       -4.4441037673
 O          2.4311665116       -3.3988657053        3.6900854860
 H          2.6302976667       -2.5855311627        3.1873270610
 H          2.2295630791       -3.1360324287        4.6111624572
 O          5.4812384726        3.2548967498        1.4163311487
 H          6.3360471074        2.8637890852        1.1369396762
 H          4.9101109143        3.2316569183        0.6162960596
 O          6.7160082503        0.2959120547       -1.1011847034
 H          6.9750917598       -0.6308514357       -0.9914683525
 H          6.6278853203        0.4667979125       -2.0561023579
 O         -5.8775863065       -3.7428212399        1.5503223791
 H         -5.9528627768       -4.5810541517        1.0559226648
 H         -5.9642015179       -3.9640548642        2.5024231458
 O         -6.6425532320       -0.0652986580       -2.2101625907
 H         -6.1758255640       -0.7149811269       -2.7859270073
 H         -7.1352245363       -0.6118394915       -1.5715718017
 O         -3.1103420804       -2.3764756977       -4.7284311128
 H         -2.7704835831       -2.0773312314       -3.8649281472
 H         -2.8163744281       -3.3192766125       -4.8004461241
 O          5.1825852501       -2.3329409585        1.3128267059
 H          4.3572197579       -2.0026563852        1.7109015906
 H          5.8455572106       -1.6228739882        1.4153838398
 O         -4.2956098300        0.5922915190       -4.5374729183
 H         -3.9639726188        0.6928654779       -5.4453977156
 H         -3.6768093903        0.0575853493       -4.0074737629
 O          0.4315985963        3.5746761492        3.6553828022
 H          0.6720348618        4.3023291919        3.0510157929
 H         -0.5108406177        3.7045502711        3.8599523791
 O         -5.0869170551        2.7169075303       -3.3394713400
 H         -4.8437638592        1.8510378222       -3.7571445091
 H         -4.9396553812        3.3699094055       -4.0507745916
 O         -2.0427680535        3.2348409601       -4.3245890767
 H         -1.7170531969        2.6042849210       -4.9997367303
 H         -2.2178384308        2.7341732786       -3.5101774519
 O         -0.8902166880        5.5686239914       -3.5070899208
 H         -1.4300890759        5.7958064164       -2.7347044059
 H         -1.2788649215        4.7451111851       -3.8611388452
 O         -6.0848265571       -0.4941631683        0.9241477188
 H         -6.0793037873        0.4652880587        0.8195443165
 H         -6.8898269829       -0.8303951268        0.4825291095
 O          2.5272962884       -5.0027698017       -1.7790067727
 H          3.1777221339       -4.6488608790       -2.4169958015
 H          2.5817746895       -5.9762677088       -1.7545813505
 O          1.7295053435       -1.8180739223       -3.5661179026
 H          1.7618461725       -2.1084795945       -2.6208697675
 H          1.4531662607       -2.6203973285       -4.0332818821
 O         -2.1116239538        5.9191242763       -1.0403288685
 H         -2.9325247739        6.2268549737       -0.6028686546
 H         -1.8474400414        5.0875222065       -0.6031405725
 O         -2.2371641270        4.0414845337        3.9334116610
 H         -2.8555311740        3.6163088675        4.5614149221
 H         -2.5586598833        4.9161378936        3.7069004594
 O         -3.1889349952       -0.3058746734        5.1335375181
 H         -2.4268358864        0.3025478849        5.2213397021
 H         -3.1439740865       -0.5734835943        4.1911918881
 O         -8.1178660539       -1.0221366957        3.8503559485
 H         -7.1541749323       -1.2173971423        3.8745044096
 H         -8.2053343514       -0.2765149980        3.2196144282
 O         -8.5273568416        0.7004112870       -3.8778994214
 H         -7.8060197562        0.5638897102       -3.2120797166
 H         -9.0203724030       -0.1666258071       -3.8704522490
 O          2.8764248159        1.4080112511       -7.5678362119
 H          2.3768586333        0.5827306619       -7.6162946518
 H          2.2407180987        2.0658187513       -7.2260008678
 O          0.9986725222        2.9476214142       -6.3768139923
 H          0.0796152922        2.6783359343       -6.5187433685
 H          1.0147984774        3.9001935931       -6.1438980278
 O         -3.5770074714       -3.0508084570        3.6343768890
 H         -3.3316090021       -3.0299697271        4.5707594192
 H         -4.3455510180       -2.4472614653        3.5590829874
 O         -1.1521742836       -2.7360922479       -2.8952409321
 H         -0.6998477680       -1.8899490052       -2.8787927591
 H         -0.5025180121       -3.4104002683       -3.1867070415
 O         -3.5517287342       -5.8395723951        0.9723084737
 H         -2.9980933930       -5.0426899635        0.9336891895
 H         -3.8692650068       -5.8828507759        1.8992823768
 O          1.1800224708        5.4604342090       -5.5135241042
 H          2.0299500551        5.5189200766       -5.0557091297
 H          0.4853058982        5.6872253283       -4.8835062234
 O          0.7751016870       -4.3374587100       -3.6865061599
 H          1.2970863153       -4.5690688239       -2.8879392348
 H          0.6384819842       -5.1610344979       -4.1593563138
 O          7.0670031892       -0.5067410393        1.8062891644
 H          7.1323024441        0.4153542203        2.1198109106
 H          7.7918285505       -0.6092055494        1.1482751716
 O         -8.2537836066        1.0233521459        2.1211105873
 H         -9.0477338322        0.7253498445        1.6348598197
 H         -7.6477711500        1.4285170373        1.4711671202
 O         -1.0351750322        1.2430436166        4.8817602604
 H         -0.2628011331        0.7304112454        5.1953303834
 H         -1.0489097724        2.0581588584        5.4106311149
 O         -8.2983055843       -1.1729453883       -0.3885167273
 H         -8.9612944410       -1.8711163985       -0.2254180531
 H         -8.7656203478       -0.3182955641       -0.3320126064
 O          2.1992058140        4.4580544796        5.3969849303
 H          2.8452672718        4.8160929758        4.7751326915
 H          1.5400309106        4.0093343768        4.8106086313
 O          7.6533230404        2.2852087343        0.3135232416
 H          7.7922088143        3.1144631985       -0.1761830280
 H          7.3546758817        1.5872170215       -0.3066024869
 O         -8.5265527412       -3.1751617929        2.3207570944
 H         -7.6678814252       -3.2592529679        1.8782364085
 H         -8.4634042340       -2.3598258006        2.8626814212
 O         -3.3816743595       -2.6484013870        6.3427219343
 H         -2.8682023305       -2.7343246998        7.1445439308
 H         -3.2634289697       -1.7198720433        6.0270685320
 O         -1.4412296447       -5.1374164526        3.9676685441
 H         -2.2256563900       -5.6553169017        4.1723287662
 H         -1.6141352349       -4.7475591509        3.0742486677
 O          3.9723553265       -3.5099790145       -3.4252087176
 H          4.2385632897       -2.8404513773       -2.7713117554
 H          4.7564581219       -3.7592065084       -3.9448550383
 O         -6.1209046664       -2.6001138005       -1.0269362714
 H         -5.6067376106       -3.2792030654       -1.4996136804
 H         -6.2458240898       -2.9250540357       -0.1316426462
 O         -1.4009558650        1.6251575962       -6.3492555080
 H         -1.1661741709        0.6904764036       -6.1854124422
 H         -2.2298395617        1.5716822977       -6.8499466465
 O         -0.9936193231       -0.9696322774       -5.6993051141
 H         -1.8431633193       -1.4222433705       -5.5361840109
 H         -0.7067453419       -0.6453787077       -4.8082965544
 O         -7.2573381009        2.7957438402       -1.8679967927
 H         -6.5487017712        2.7326210774       -2.5407626754
 H         -7.9417693765        3.4080168099       -2.1910096007
 O          6.1874815875       -1.6868145656       -3.4022963754
 H          6.4141727010       -1.9091507546       -2.4810587230
 H          5.3738738551       -1.1313084474       -3.3731074132
 O          0.8677865746        5.8059595302        2.2471001996
 H          1.5669673042        6.4485454692        2.3959011479
 H          1.1054278211        5.3562235501        1.3999598887
 O         -9.8207493850       -1.5064495341       -3.5603113417
 H         -9.1326864569       -2.1776403737       -3.3496720627
 H        -10.3476724213       -1.3908661511       -2.7532196970
 O         -4.8978886647       -4.6867526178       -2.2075113090
 H         -4.0126048072       -4.3534151376       -1.9174834596
 H         -4.9718701511       -4.6294190256       -3.1842752577
 O         -5.6633918101       -1.7626244238       -3.9696075140
 H         -4.7514795370       -2.0473238042       -4.1401274987
 H         -5.8673549892       -1.1072722350       -4.6624840774
 O         -1.8279821849        6.0904375522        2.0427691929
 H         -0.8552915876        6.0134901942        2.0450166341
 H         -2.0146688401        6.8961017148        1.5575604348
 O          7.1693821992        0.7171025334       -6.5844394519
 H          7.7454105590        0.1106170224       -6.0870398822
 H          6.2634535543        0.4003608530       -6.3843451015
 O         -1.5961985924       -7.6912976563        0.6706725403
 H         -2.3013865812       -7.0553512615        0.9072834082
 H         -1.8450499633       -8.0404028185       -0.1874158209
 O          0.7535539058       -6.4763055486        0.7658010019
 H          0.8738151115       -6.1844652243        1.6895848266
 H         -0.0672048860       -7.0132338460        0.7593793154
 O          7.1713529399       -2.4394350155       -1.0422199491
 H          6.6543306905       -3.2152057784       -0.7751056809
 H          7.9159482174       -2.7356486968       -1.5980533177
 O         -9.0938576102        1.3726841766       -0.6487029944
 H         -8.3268073394        1.7105141428       -1.1535571565
 H         -9.8414092786        1.3836269025       -1.2762080087
 O          3.4170533984       -0.8590831337        5.0217453038
 H          4.0121113753       -1.6214750684        5.0953947929
 H          3.6988344567       -0.2458457781        5.7329235115
 O         -7.7990082097       -3.1258711435       -2.9995086882
 H         -7.0966506098       -2.9340113172       -3.6411344941
 H         -7.3927001183       -2.8256157993       -2.1562686311
 O         10.5555603032       -0.3658332146        2.5250084785
 H         10.0596996065       -0.4434496321        1.6816368602
 H         10.7009513302        0.5952515740        2.6275318888
 O          9.1236766811       -0.8585136115        0.2450557957
 H          9.1549034502       -0.4568357703       -0.6519125143
 H          9.1432575908       -1.8241911559        0.1245516173
 O          5.4835080971       -4.5881616551       -0.4957560591
 H          5.2111665196       -4.8631425775       -1.3930450530
 H          4.6663315304       -4.3547157161       -0.0005153755
 O         -0.7122863771       -2.8238954176        5.2370978527
 H         -0.4831696892       -2.2262554508        4.4918075327
 H         -1.0277957032       -3.6612003790        4.8532160757
 O         -1.2978978747       -6.0980514441       -2.7781395715
 H         -0.8963410074       -5.4846218270       -2.1260382540
 H         -2.0652265194       -6.5106668476       -2.3391814094
 O          4.6448679836       -0.0017505163       -6.0295472629
 H          4.0239969827        0.4886024294       -6.5957676302
 H          4.6787319188       -0.9267809601       -6.3799892349
 O          1.6861422237       -0.8711185769       -6.4732288071
 H          0.7245011071       -0.9340080870       -6.4059339408
 H          2.0363905176       -1.7581054305       -6.3253134072
 O          6.2050315448       -3.8258122794       -4.9373760920
 H          6.3943448902       -2.9997521762       -4.4410038333
 H          6.8697785093       -4.4686300913       -4.6834339885
 O          6.6979021618        3.3825238080       -2.0437500408
 H          6.5768475336        4.0755472049       -2.7184446111
 H          6.5908888398        2.5318533801       -2.5365711633
 O         -5.4574321925        0.1136658411        6.5052225717
 H         -5.0691950045        0.3822903093        7.3385810620
 H         -4.6967851309        0.0320526833        5.8921779606
 O          9.3148662760        0.1662708266       -2.2208853297
 H         10.1612617818       -0.1342622549       -2.5958547471
 H          9.3553136770        1.1461198403       -2.2121503953
 O          2.3970165275        7.0362742810       -0.3204599513
 H          2.7794638355        7.0305661596        0.5742958329
 H          1.4425721553        7.1709523102       -0.2133447612
 O         10.1599487870        1.5865168300        0.6593569643
 H          9.1921311265        1.7147480100        0.6189240361
 H         10.5524489167        2.4019999505        0.3252672339
 O          4.4037990963       -5.0117252388        4.2303476101
 H          3.7362005427       -4.3566332422        3.8953934648
 H          3.9122688858       -5.4451330426        4.9637403989
 O          5.4799219566       -2.6654581331        5.2038936919
 H          6.3340256609       -2.6080916997        4.7366726429
 H          5.1800541991       -3.5789962685        5.0846013016
 O          7.6423780047       -2.4325706024        3.5417217887
 H          7.2290361664       -3.2019630061        3.0919192473
 H          7.4364652578       -1.6592323734        2.9617357575
 O         -6.5838570581        5.4456078241       -0.6874024591
 H         -6.8768102601        5.5191584165       -1.6232869737
 H         -7.3554064998        5.3010362871       -0.1375770852
 O         -7.6422456659        2.6746166905        4.0819183564
 H         -8.0739824673        2.1494219582        3.3713121743
 H         -7.8608878392        2.1594430330        4.8916329121
 O        -11.3112441107       -1.0280682514       -1.2568091358
 H        -11.3720991290       -1.9693877966       -1.0646072382
 H        -10.9083080521       -0.6502976360       -0.4396017606
 O         -8.0755120646        0.8040593318        5.8871105264
 H         -7.1823938910        0.6416037365        6.2290466218
 H         -8.2428625244        0.0591518346        5.2772442376
 O         -9.7622029827        3.7232890818        0.4476378039
 H         -9.0763311946        4.0701252153        1.0343010805
 H         -9.4590154318        2.8292751740        0.1704763714
 O          8.3487031330       -0.7876724444       -4.5868323988
 H          7.4442945996       -1.0148368877       -4.2817011520
 H          8.6862807288       -0.2176040797       -3.8737835776
 O         -6.3002337079       -5.7592431453       -0.1943125161
 H         -5.8193456036       -5.4067000058       -0.9735392161
 H         -5.9038782549       -6.6076395684        0.0069553533
 O          2.5459086513       -3.5300277743       -5.7044528872
 H          2.9520561177       -3.2953459911       -4.8424369267
 H          2.6791912239       -4.5016786334       -5.7001892080
 O         -2.2828895678       -4.8451818634       -4.9883467376
 H         -1.5151254741       -4.6132355719       -5.5438656081
 H         -1.9245367003       -5.2988128706       -4.1984474993
 O        -10.0978245589       -3.1261050831        0.1739575193
 H         -9.7745031496       -3.8882236182       -0.3541650442
 H         -9.6435812076       -3.2169977618        1.0391227883
 O         -6.5921940022       -4.3353130926        4.0535131037
 H         -6.4232292320       -3.6838589829        4.7692851562
 H         -7.5307395687       -4.2664457218        3.8493745055
 O          9.5495912064       -3.4873988399        0.2129495762
 H          9.0245484928       -4.2827387619       -0.0136446995
 H          9.7216342274       -3.5016397442        1.1755239506
 O         -6.8218730826       -0.1166731168       -5.8290843881
 H         -7.5315244696        0.1858409228       -5.2334468399
 H         -6.3682298336        0.6961149094       -6.1013162597
 O         10.1040910537       -3.1250233372        2.8145612938
 H          9.2273178885       -2.8968800586        3.2019464436
 H         10.5805846689       -2.2850533373        2.8218113713
 O          3.6199410632        6.7323779422        2.1045240443
 H          4.5201753092        6.8037822267        1.7634750463
 H          3.5626442495        5.8105603218        2.4473803493
 O          6.3045067753       -0.0095375288        4.8134535466
 H          5.8763442816       -0.7813571831        5.1930600025
 H          5.7723461840        0.2694895367        4.0388431601
 O          7.5868538120        1.8785998823        2.9518618354
 H          6.8732969718        2.3816563464        3.4001799152
 H          8.0683040875        1.3635173150        3.6267354917
 O         -6.0822727310       -2.6021503864        6.0227300388
 H         -5.1528377966       -2.7990358073        6.2253935556
 H         -6.1513217898       -1.6432719078        6.1283234729
 O          8.9800793781        0.2890589662        4.6333629538
 H          9.5335271528       -0.1754450775        3.9799403846
 H          8.1870248987       -0.2422458153        4.7957482101
 O         -4.1961924903       -5.6196316626        3.5476392976
 H         -5.0998977076       -5.6660654275        3.8742804129
 H         -3.9871712592       -4.6526749350        3.5576055349
 O          6.2640339497        2.1462119038        6.3714970792
 H          7.1792570661        2.4599745416        6.4342481809
 H          6.3209334834        1.3096566485        5.8549603271
 O          6.0091074619        5.8304767326        0.8201310759
 H          5.5591809535        5.9820286541       -0.0387682420
 H          5.7515788429        4.9210948163        1.0983374050
 O         -4.2464803076        4.3252706706       -5.3073490949
 H         -4.2238266285        5.1973710258       -4.8962371547
 H         -3.3714256976        3.9323697613       -5.0910009808
 O          5.7925641288        3.4729452634        4.1397360500
 H          6.3154893625        4.2965123943        4.0268133116
 H          5.8720172891        3.1674304707        5.0686130698
 O          9.3713476344        2.8171448328       -2.1846206176
 H          9.9458780010        3.2636117447       -1.5548685486
 H          8.4608102288        3.1440936096       -2.0702265468
 O         -0.2916204409        7.5559500006       -0.0341830844
 H         -0.9050010565        6.9146451314       -0.4605999202
 H         -0.3059608647        8.3397366866       -0.5795301467
 O         13.0989368848       -0.4913836882        1.4915675665
 H         12.2859534935       -0.4297797497        2.0275519573
 H         13.2146759240       -1.4490580892        1.3523897694
 O         -3.8272490342        0.8571243305       -7.1835955808
 H         -3.9996803501       -0.0956183925       -7.3454170400
 H         -4.6480562014        1.3360994442       -7.3338921090
 O        -10.4487503312       -0.0677699800        1.0945701328
 H        -10.6224484959       -0.5926619198        1.9000817672
 H        -10.9902088824        0.7474950736        1.1990199196
 O         -5.2875313750        5.7064537342        2.5660177679
 H         -4.6898385669        5.0298689100        2.1778582530
 H         -5.3737007546        5.4771227027        3.5111635779
 O        -11.7600436013        2.1729088220        1.5949706694
 H        -11.4886530622        2.1246776398        2.5260972561
 H        -11.2234143595        2.8825596698        1.2000860405
 O         -1.0508358963        3.4616558427        6.5352603742
 H         -0.7474602872        4.3117248992        6.1469865839
 H         -1.9959028197        3.5715366594        6.6632628581
 O         -4.3525404232        6.8580638703        0.1505886674
 H         -4.5130220493        6.7698730608        1.0985705468
 H         -5.1668304698        6.5165998220       -0.2537184200
 O         -4.1329067169        6.0521137181       -3.1726949292
 H         -3.9895579553        5.4032861358       -2.4500482256
 H         -3.8565791948        6.8998644766       -2.8272028373
 O          5.1473175183        2.8932554735       -6.7110405674
 H          5.9016846058        2.3101343469       -6.8543704126
 H          4.4185533683        2.5252766515       -7.2273997104
 O         -8.8327182817       -5.0096481393       -1.2381955368
 H         -8.0417045709       -5.3534213710       -0.7997825569
 H         -8.5212814512       -4.5354383895       -2.0240686027
 O          6.3337181956       -4.4426043922        2.3899535881
 H          5.7157064974       -4.7779716683        3.0534477472
 H          5.8340501040       -3.7809031536        1.8584589107
 O        -10.9560221485       -1.2537708910        3.4751904073
 H        -11.5922648743       -1.8437979352        3.0006759751
 H        -10.2751642477       -1.8047164900        3.8657772731
 O          9.0222303230       -2.9147513579       -2.9880638490
 H          8.8938553572       -2.2245995774       -3.6717258505
 H          9.9320782666       -2.8226224318       -2.6686487031
 O          1.0812036061       -5.7157807879        3.3495914181
 H          0.1546346915       -5.6053568880        3.6369962295
 H          1.4668973927       -4.8175654853        3.3174216438
 O          7.2557788362        5.5541366214        3.3970121439
 H          8.0487502008        5.0960018624        3.0609325922
 H          6.8300053307        5.9301881069        2.6181041607
 O          7.7535545345       -5.3183573374       -3.0189977278
 H          8.2563057880       -4.4856185413       -3.0918974406
 H          7.9890108595       -5.6649082766       -2.1468789242
 O        -10.8467428046        1.4840837216       -2.6740781520
 H        -11.3878483117        0.6961983597       -2.5690267371
 H        -10.1087265552        1.2375867419       -3.2667827030
 O         -8.0396217420        3.3068191597       -4.6556099911
 H         -8.2042721286        2.3851688107       -4.3923844463
 H         -8.8043305933        3.8042570594       -4.3525625149
 O         -4.2470579886       -1.7766269621       -7.1581949162
 H         -3.8329862474       -2.0227520462       -6.3172878330
 H         -5.1208093543       -2.1769543985       -7.1450797381
 O         -0.2220633923       -3.6738908974       -6.3000088376
 H          0.7279535560       -3.7184492754       -6.1199888295
 H         -0.4772494970       -2.7447439488       -6.2372009776
 O          8.0300510520       -5.6169821687       -0.2827439833
 H          7.1264868554       -5.2883746087       -0.1469107905
 H          8.3131952562       -5.9929969808        0.5688907446
 O         -6.0152165874        2.4824006335       -6.4365984146
 H         -6.8147216327        2.8239056830       -6.0145354805
 H         -5.3257271331        3.1223752392       -6.2062047659
 O          1.0882340076       -7.1928871972       -3.5143623771
 H          1.5044860206       -7.5294823623       -2.7104118313
 H          0.1707942492       -6.9727521998       -3.2752657476
 O          2.4611208715       -7.5653019708       -1.1048971252
 H          3.3590703667       -7.6290351865       -0.7254317706
 H          1.8714716140       -7.3139137937       -0.3723077441
 O          8.0068601094        2.7060700083       -5.0561468392
 H          8.9363451464        2.4912767458       -4.8290222384
 H          7.8031234894        2.1443413758       -5.8300019605
 O         -5.0987191959       -4.6594860651       -4.8385136132
 H         -4.2164122477       -4.8274051929       -5.1934638985
 H         -5.5465953280       -4.0183963951       -5.4077401193
 O         -3.5269623721       -6.9844739189       -1.5266007315
 H         -3.5656418509       -6.5451091341       -0.6601295214
 H         -4.1349728882       -6.4833499299       -2.0870331140
 O         -0.2007077565        5.7927860127        5.4663345508
 H          0.7478049457        5.6085518247        5.5735178087
 H         -0.3365491080        6.0164020214        4.5419848954
 O          1.5204221287        2.4467348587        7.1675123119
 H          1.9816999878        3.1424036014        6.6738712486
 H          0.6022305932        2.7463627642        7.1917989789
 O         -9.6562852732        4.0184577835       -2.3120803671
 H         -9.7985158747        4.2057076146       -1.3696567509
 H        -10.2912679056        3.3219618490       -2.5203820385
 O          1.7144218859       -3.0436184183        6.2371477895
 H          0.7600205934       -2.9613088341        6.0000565092
 H          1.9595629990       -2.2503436953        6.7164361528
 O         -5.7156575768        4.5764491141        4.9689320094
 H         -5.0529579558        3.9965424500        5.3735554479
 H         -6.4795733816        4.0139607237        4.7878671859
 O          6.5848186863        4.8534376939       -4.2867943945
 H          7.0845481126        4.1400658160       -4.7335381617
 H          5.7942718803        5.0083334906       -4.8083830290
 O          3.5124939082       -6.5984782557        2.2458013380
 H          3.9703772576       -6.1546175830        2.9867071146
 H          2.6565277624       -6.8672168315        2.5908472471
 O          2.4315051789       -5.7243184843        5.8004547005
 H          1.8378788532       -5.9000229362        5.0525263289
 H          2.1712657237       -4.8616911377        6.1540013043
 O         -1.0845945450       -1.0248006427        7.2441026434
 H         -0.2509447683       -0.5744001332        7.0367625901
 H         -1.1383021526       -1.7125002565        6.5591028836
 O          3.1225210502       -6.0053081261       -4.9458351100
 H          2.4069956499       -6.5013212002       -4.5159812609
 H          3.8415732780       -5.9482906930       -4.3035702353
 O          5.1252326342       -5.9626221099       -2.7990328890
 H          6.0547410837       -5.7810157186       -3.0404919646
 H          5.1033386331       -6.8475619730       -2.4276977891
 O        -10.5253520400        1.4454730131        3.9532471720
 H        -10.0943853655        1.5496181145        4.8032442853
 H        -10.7339326499        0.5009161100        3.8745081570
 O         -6.8382837330        5.5227318146       -3.3122622691
 H         -5.9056217065        5.7532109170       -3.4527455494
 H         -7.0463863237        4.7713376817       -3.8828422286
 O        -12.3984308869       -2.5303951478        1.7088422878
 H        -11.7123093486       -2.8116103575        1.0835709811
 H        -12.8531682889       -1.7632571589        1.3153648825
 O        -13.3378801441       -0.1764927464        0.5631015564
 H        -13.0885574980        0.6750671738        0.9401664141
 H        -12.8902634607       -0.2488458842       -0.2896427531
 O          4.7551157804       -2.4837333542       -6.8594887576
 H          3.9149019151       -2.9183944817       -6.6272605971
 H          5.4313682977       -2.9828337595       -6.3800538113
 O          9.1333506377        3.9072309519        2.3122725286
 H          9.0409254640        4.2417241822        1.4042975922
 H          8.5184043018        3.1332832754        2.3655137368
 O         11.3675676533       -2.5474133761       -1.4763684667
 H         11.4463059932       -1.6099719875       -1.1872691148
 H         10.7131958071       -2.9535749565       -0.8740595114
 O         11.7486256819       -0.0007333102       -0.7219126112
 H         11.0305422696        0.4881392118       -0.2524282566
 H         12.4180964732       -0.1567328486       -0.0234917587
 O          8.3843505635        4.8757881000       -0.1365062630
 H          8.5612735772        5.2243675284       -1.0318478690
 H          7.5850490793        5.3438221788        0.1746972060
 O          4.9105665865       -7.2914610224        0.0079261524
 H          4.5529618867       -7.2961354206        0.9071213821
 H          5.2679098462       -6.3973613468       -0.1091250887
 O          8.7483819637       -5.7302591895        2.3087272478
 H          9.3842980606       -5.1146714939        2.6831806106
 H          7.8704156392       -5.3476838156        2.4641387079
 O         11.0410831537        2.2561961864        3.2356023026
 H         10.4034506129        2.8923395909        2.8432107955
 H         11.0292860932        2.3867812439        4.1840711199
 O         10.4398908789        1.7489353626       -4.6496092135
 H         11.0389798945        1.9224287775       -3.9009255061
 H         10.4864603268        0.8043285088       -4.8199469733
 O         11.4874918681       -0.7378050435       -3.6314019537
 H         12.1693004291       -0.0756604903       -3.4853074379
 H         11.7616905883       -1.5378190672       -3.1702050961
 O         12.9570100752        2.4042428705        1.2599317997
 H         13.2730560329        1.4993864139        1.1575795774
 H         12.3487077963        2.3684535998        2.0177542885
 O         12.6291859537       -3.0992286005        0.9820035311
 H         11.9203499023       -3.4789627652        1.5070100183
 H         12.3349348962       -3.0988141315        0.0572678394
 O          8.7882659233        5.5448555636       -2.7325992295
 H          9.2914602422        4.8196657434       -3.1190066318
 H          7.9785805674        5.6095667522       -3.2579417657
 O         -2.7029654595        1.1029705127        7.5477230404
 H         -2.0442797318        1.6962505280        7.9099455106
 H         -2.2282762484        0.2518290007        7.4192479347
 O         12.2135648957        1.9082068231       -2.5469209516
 H         12.0958720749        1.2201508922       -1.8585381545
 H         12.0946671112        2.7437272040       -2.0874748246
 O         11.4409506179        3.7638995052       -0.4328420766
 H         12.1505416675        3.3521425327        0.1180816852
 H         11.2717608546        4.6360807336       -0.0761269165
 O          8.8169746682        2.8634611680        5.5620221440
 H          9.0166018427        1.9436879401        5.3225224955
 H          8.7948254432        3.3792815916        4.7517840562
 O          3.9698587325        0.6599126269        7.2075341743
 H          4.7426286972        1.2281686765        7.0901046262
 H          3.2314411741        1.2550921395        7.3715076411
 O         -6.7877668368       -2.8299651204       -6.2805745315
 H         -6.9062928061       -1.8661826035       -6.2029746861
 H         -7.6070790560       -3.2238076323       -5.9786431298
