  106

 H         -0.0000000000       -0.0000000000        0.0000000000
 O         -0.3431100005       -0.2482897227        0.9262460543
 H          0.4495393792       -0.5192232663        1.5538715583
 H         -0.7783626389        0.5609104178        1.3889003571
 O         -1.2893851760        1.6257473150        2.3578208860
 H         -0.8206008290        2.4794571444        2.2357769120
 H         -2.2423031533        1.7955548463        2.1460236103
 O          1.4511140195       -0.6144126205        2.6147114324
 H          0.8903583521       -0.3582929050        3.3918699457
 H          2.0481549662        0.1504014019        2.4429945500
 O         -2.4115838246        0.3240006496       -0.7518110197
 H         -2.7918511974        0.6640242456       -1.5821711836
 H         -1.9235015016       -0.4969904608       -0.9837543352
 O         -0.7078820816        2.2806685751       -0.1947299124
 H         -1.4046479871        1.6314357313       -0.4089022673
 H         -1.1390070751        3.1427786168       -0.0887686744
 O          0.5960416916        0.3411192493       -1.4120419525
 H          1.5390103238        0.4416661726       -1.1983285407
 H          0.5655516374       -0.3839042329       -2.0771395521
 O         -1.1627988734       -1.9485514837       -1.3556456987
 H         -0.2871017103       -2.0539989176       -0.9160619627
 H         -1.7200993166       -2.6578157727       -1.0168963896
 O          1.1482954666       -2.2527508688       -0.0693599878
 H          0.7415347794       -2.6568422059        0.7278847613
 H          1.7666306373       -2.9088585265       -0.4445100310
 O          2.8239421104        1.5983560777        2.1580029348
 H          2.4437448117        2.0651626581        2.9330156859
 H          2.5643669664        2.1045059228        1.3649661238
 O          1.8397055292        2.8894466981       -0.0783193511
 H          2.3599459578        2.4723276329       -0.7932948520
 H          0.9463012040        2.4812189881       -0.1245007469
 O         -2.0614898791       -1.7579288953        3.1508657436
 H         -2.6377748758       -2.2655789504        3.7230427034
 H         -2.6399594125       -1.3826739193        2.4456410662
 O         -0.3582834985        0.1384334836        4.3568501626
 H         -0.9159759688       -0.6500592241        4.3239543826
 H         -0.8103176396        0.7669332170        3.7573630750
 O         -3.7518479005        1.9724785473        1.5595229250
 H         -4.1162984474        1.0805983553        1.5213623394
 H         -3.7282245758        2.3220105014        0.6539495494
 O         -3.7077455280       -0.9023790513        1.2090480807
 H         -4.0862326562       -1.6246525248        0.6973286434
 H         -3.1915791948       -0.4026602071        0.5400191450
 O          0.9121720605       -1.5213940468       -3.3020303703
 H          1.8851644535       -1.5253353283       -3.2000190705
 H          0.6313088081       -2.4148312275       -3.0437810976
 O          2.9556235728       -0.3145807501       -0.3737001907
 H          2.3737187615       -1.0396983312       -0.0613181189
 H          3.6887982908       -0.2587958781        0.2491491883
 O         -0.4162992314        2.3126241156       -3.0300993373
 H         -0.1502536120        1.7040574894       -2.3086370061
 H         -0.2096476425        3.2007677264       -2.6933579326
 O         -2.9695250573        1.5216516233       -3.0926164607
 H         -2.9770060605        0.6645137852       -3.5443212607
 H         -2.0620568434        1.8796856266       -3.2174370120
 O          3.0734982142        1.8174073757       -2.2506353411
 H          2.5626531932        1.5501022841       -3.0540217021
 H          3.8584175961        2.2652764564       -2.5625440824
 O          3.5469321417       -1.3280304435       -2.7350872385
 H          3.4234131005       -0.8308634003       -1.8864045048
 H          4.1125252444       -0.7944816708       -3.2929098198
 O         -0.2463382527       -3.3720204797        1.8889842728
 H         -0.8726911661       -2.7779902074        2.3431537294
 H          0.5132118864       -3.5036095854        2.5150547883
 O          1.6081745605        1.0878926188       -4.3453303031
 H          1.3249162706        0.1673732898       -4.3041378216
 H          0.8177405211        1.6154395625       -4.1263005681
 O          0.5192677912        4.6025476373       -1.7856598637
 H          1.0806944540        4.1277634328       -1.1370101662
 H          1.0982633060        5.1709026239       -2.2922972409
 O         -1.1426292951       -4.5525825277       -0.3317032883
 H         -0.8152504080       -4.1756793443        0.5147654573
 H         -1.4031311477       -5.4518574975       -0.1353465325
 O          2.9854447083       -3.6967988926       -1.4212929756
 H          2.2968038742       -4.1274388754       -1.9465436533
 H          3.3711679580       -3.0110024010       -1.9874439854
 O          0.0232752572        3.9652567333        2.0719167963
 H         -0.6152572206        4.5096500804        1.5888558017
 H          0.7919489034        3.8796012672        1.4969411901
 O         -3.9955043707       -2.3042323774       -1.2989996706
 H         -3.7036426835       -1.8493289302       -2.1001107259
 H         -4.6755422308       -2.9214396533       -1.5662378666
 O         -3.7029297058        3.1590672159       -0.9998622592
 H         -4.6135351264        3.4362423792       -1.0971250266
 H         -3.4908899824        2.6362437733       -1.7931763987
 O         -2.4784136083       -1.1725783020       -3.5877052127
 H         -1.8089496640       -1.4416826328       -2.9288307022
 H         -2.1557314552       -1.4720292823       -4.4379263187
 O          1.9300388285       -3.2961619971        3.3144592596
 H          2.6436143222       -3.5050841667        2.6890070989
 H          1.9294272569       -2.3299847467        3.3554088448
 O          0.4571502672       -4.1624859697       -2.5006711725
 H          0.1372686479       -4.7817343172       -3.1556467981
 H         -0.1027457248       -4.2831593683       -1.7033906938
 O          3.7423191086       -3.1321107992        1.2985102394
 H          3.7614677272       -3.4317702213        0.3837549425
 H          4.1431886898       -2.2550615643        1.3401506214
 O          1.3761636245        2.5700602136        4.1649077573
 H          0.8464411527        1.9091724072        4.6224482676
 H          0.7733274329        3.2308956518        3.8046852182
 O          4.6396197367       -0.3913002603        1.7558061600
 H          5.3542990554       -0.5162396122        2.3787996162
 H          4.1418512430        0.3910203640        2.0545542769
 O         -1.6548085520        4.8224742954       -0.0156845848
 H         -2.5123825024        4.5491186934       -0.3703275875
 H         -1.0936039265        5.0705453201       -0.7635328979
