  282

 H         -0.5425054113       -1.1597996582        0.9180873599
 C         -0.6112510051       -0.5412956743        0.0100749178
 H         -0.5391308395       -1.1969144472       -0.8712436599
 C          0.5103658647        0.5037878333       -0.0094871847
 H          0.3911098457        1.1518924075        0.8600966293
 H          0.3944399221        1.1152669957       -0.9056411629
 O         -1.7891825171        0.2100258094       -0.0077307041
 H         -2.5646581753       -0.3620747640        0.0026734599
 N          1.8637421188       -0.1172780946        0.0059475221
 H          1.9871272139       -0.7237037742       -0.8163106227
 H          1.9839787968       -0.6890763204        0.8531041600
 H          2.5930828885        0.6072400319       -0.0077051384
 O          2.6253169923        1.0436742510        3.1746138092
 H          2.8624429746        1.8325922347        3.7107951980
 H          2.0041698855        0.5325396673        3.7211531509
 O          2.1142049870       -2.9399663299       -1.2296503590
 H          2.0660168064       -3.7093885012       -0.6332914902
 H          1.6431155229       -3.2279220902       -2.0355484994
 O          0.7320489378       -0.5369479192       -2.8460665059
 H          0.8685869665        0.4164345096       -2.9841716945
 H         -0.2189881403       -0.6729515201       -2.9563042218
 O         -4.0649260118       -0.9242262253       -0.9743819161
 H         -4.5481064454       -1.7122675271       -0.6700206204
 H         -4.6655051982       -0.1826424244       -0.7942174425
 O          1.4855913253       -0.3278811218        5.2619220923
 H          0.5682749010       -0.3910961286        5.5893307257
 H          1.7133486089       -1.2443361699        5.0289608162
 O         -0.3543013571        0.9763556855        3.2858968423
 H         -0.7539904877        1.3308122946        4.0938054237
 H          0.0125387771        1.7455160850        2.8207040234
 O         -1.8860908989        2.3244837048       -1.6449200522
 H         -1.7927243370        1.4882664074       -1.1457814760
 H         -2.7383228633        2.6910541895       -1.3741187667
 O          3.3455411209        2.0405687824        0.8028166709
 H          3.0875977689        1.6787673717        1.6713855638
 H          4.3138928904        2.0315444290        0.7676299361
 O          0.2047468306        3.2648290867        1.9403549231
 H          1.0595194629        3.7301669334        2.0845980695
 H         -0.0879598850        3.5817249249        1.0531543749
 O         -0.4326681941        4.2206943909       -0.4380754940
 H          0.5102967319        4.1541106994       -0.7095536658
 H         -0.8992288911        3.5568647729       -0.9845858625
 O         -3.8156379911        0.8562888881        4.3181886312
 H         -3.5704461044       -0.0714812032        4.4736504455
 H         -3.4365644689        1.0799426787        3.4248328450
 O          4.5327150893       -0.6390625024       -0.1478117928
 H          4.5584350761       -0.8362256260        0.8072319751
 H          4.6975354384       -1.4532588463       -0.6510758853
 O         -2.8688379732        1.6845733422        2.0244369422
 H         -2.4834036999        2.5261497673        2.3621537284
 H         -2.1613401500        1.1358241368        1.6516043024
 O          2.2833614282       -1.8595078217        1.9589164749
 H          1.5145885229       -2.4504265185        2.0091908927
 H          3.0172147951       -2.4393578753        1.6982325943
 O          0.3893246947       -3.7581475568        1.5949508761
 H          0.0287484532       -3.4437130524        0.7522230882
 H         -0.3567260507       -4.1451840667        2.0858965342
 O         -0.4980386544       -1.7155805557        3.2021124819
 H         -0.3204932678       -0.7569055743        3.2316342824
 H          0.2383660633       -2.1542920035        3.6472207644
 O          2.0378803689        3.5794897323       -1.0549007437
 H          2.5011947610        3.0010364889       -0.4315026276
 H          1.7699560465        3.0204194378       -1.8097217859
 O         -2.1315621356       -0.7728836688       -2.9030546180
 H         -2.8512704119       -0.8510297741       -2.2504674418
 H         -2.3630807692        0.0032716394       -3.4491404380
 O         -3.6073255078       -1.0117823475        1.7320280528
 H         -3.3446627347       -1.2234278646        2.6431483542
 H         -4.4366830816       -0.5295786224        1.7859887379
 O          4.6636454704       -0.5535182382        2.4931585032
 H          3.8505049159       -0.0603076288        2.7388139233
 H          5.3970045740       -0.0259528721        2.8664496667
 O          4.2232430354       -3.6941887586        1.1999775722
 H          5.0102151467       -3.7063721646        1.7646627374
 H          4.5328101076       -3.5485632867        0.2957685929
 O         -2.8579347227       -1.7147276016        4.2799182363
 H         -1.9526277410       -1.8362426422        3.8799710014
 H         -3.3521160032       -2.5401318248        4.1396762151
 O         -2.8999151420       -3.2835180736        0.5362181495
 H         -2.0533569531       -3.1819660023        0.0512166479
 H         -3.1724657350       -2.4176564779        0.8964823232
 O         -5.9288996096        0.4443859760        2.6471231881
 H         -6.8540455529        0.7650187977        2.8146539053
 H         -5.3813646414        0.7179990483        3.4008767068
 O          2.1537505157       -5.2397688223        0.3339393279
 H          1.5127588592       -4.8423231702        0.9620061917
 H          3.0218401944       -5.0332466440        0.7052411827
 O          6.0572289512        1.4242771096        0.1391411070
 H          5.4543001543        0.6713947848       -0.0886312719
 H          6.4409705901        1.7139579286       -0.7039756686
 O          8.0283922556       -0.3283031928        0.5817976844
 H          8.8079527705        0.2014422719        0.3530012852
 H          7.2743817730        0.3003621881        0.5011953780
 O         -5.6866580555       -2.8402051933        0.1486700312
 H         -5.9416730818       -2.5786101082        1.0589170727
 H         -5.3426925774       -3.7410102206        0.2431158992
 O         -4.1171469838        2.6843916669       -0.1112221021
 H         -4.9313266491        3.0047309069        0.3251341336
 H         -3.6789635629        2.1545990050        0.5870240776
 O         -6.0539005862        0.7364515106       -0.0501276707
 H         -5.9841225448        0.7780781567        0.9163477141
 H         -6.7166206097        0.0386202320       -0.2598868483
 O          4.7195774605       -2.9780981099       -1.4647106966
 H          4.9173321582       -2.9530236032       -2.4142666258
 H          3.7232219653       -2.9653490796       -1.4407056493
 O         -3.7315003946       -4.3769651601       -1.8010682247
 H         -3.5467211620       -3.9256837131       -0.9492161079
 H         -3.4810229079       -5.2920446209       -1.6483762081
 O          5.5693959603       -0.2092157709       -2.9589280362
 H          5.7678852157        0.6471203620       -3.4026422295
 H          6.4344475521       -0.5807897890       -2.7096749078
 O         -2.0602722741        4.0125175438        3.0411210506
 H         -1.1156198088        3.8669418376        2.8024307748
 H         -2.4003062628        4.5653391404        2.2967368892
 O         -1.7622781550        2.3104176439        5.2826483155
 H         -1.8282388709        3.1461727841        4.8026175242
 H         -2.6021801717        1.8408177267        5.1046259782
 O          4.9571056734        3.3403552036       -1.6484007066
 H          5.2246606460        3.8095362056       -0.8403441835
 H          4.4097477529        3.9657736497       -2.1849244657
 O         -6.6144683431       -2.1472884373        2.5815950129
 H         -6.3411696084       -1.2143127984        2.6993966672
 H         -7.5606517078       -2.1059205839        2.3886358002
 O         -2.8118785778        5.0157783042        0.7169534026
 H         -1.9632324351        5.0373185218        0.2524894334
 H         -3.3150275734        4.2883360067        0.3130347705
 O         -0.7181091634       -3.4577224138       -0.9025454101
 H         -0.9970164461       -3.2195929535       -1.8084937988
 H         -0.4410893573       -4.3941559304       -0.9966348798
 O         -7.5918728755       -1.2626198732       -0.8528822384
 H         -7.3376134872       -1.0215869405       -1.7713240810
 H         -6.9993580090       -1.9984054957       -0.6109434557
 O         -2.6720783438        1.5772722496       -4.0865383190
 H         -2.2085018852        1.9819127399       -3.3221274236
 H         -3.6083980017        1.6506102350       -3.8435572617
 O         -9.0214616415       -1.2942678987        1.4627892671
 H         -8.6503772103       -1.1795181616        0.5660390082
 H         -9.9624665717       -1.4135620994        1.3338893024
 O          3.4147326799        1.1512363338       -1.9978674239
 H          4.0576247350        0.4389979085       -2.1190194688
 H          3.9416335997        1.9309458840       -1.7358148913
 O          1.7496728684       -2.9439227669        4.5326287461
 H          2.6875146045       -2.9086323818        4.2514457837
 H          1.6742873877       -3.6530938643        5.1695515473
 O         -1.7526330221       -3.3287971924       -3.3991233331
 H         -2.5258159421       -3.7722267325       -3.0105993053
 H         -1.9662490400       -2.3725774151       -3.4050180173
 O          0.8272787818        2.2122981566       -3.0534367310
 H          0.0839500650        2.7951806909       -3.2742514330
 H          1.5017826862        2.3306490375       -3.7477971375
 O          3.1430392474        2.1661408359       -4.4726519022
 H          2.8806396996        1.5002556545       -5.1478070237
 H          3.2696870861        1.6745143033       -3.6298925719
 O          4.4023190165       -2.6057494698        4.1276857725
 H          4.4473390102       -1.8960503468        3.4375445460
 H          5.1488822972       -3.1804544290        3.9480553478
 O          5.6488658294        4.5817134570        0.6809755560
 H          6.5711512042        4.8179178918        0.7841083515
 H          5.4359531247        4.0203046553        1.4557627562
 O         -4.9532585582        1.8076492835       -2.5911760063
 H         -4.6713054874        1.9876316015       -1.6722217721
 H         -5.4376133584        2.5901660773       -2.8642900253
 O          7.9957473825       -1.1727538012        3.1766507503
 H          7.4960408220       -1.9995272735        3.1273241672
 H          8.1279304844       -0.8943549146        2.2508717414
 O          6.6663465324       -3.5727595204        2.4620338972
 H          6.9173726261       -3.3077958658        1.5348679801
 H          7.2039526708       -4.3370350776        2.6674155654
 O          7.8873596876        2.6822836387        1.7939726204
 H          7.0990462082        2.3761644182        1.3136358433
 H          7.8297143634        2.2829853004        2.6666087397
 O         -6.4883936795       -0.4143410922       -3.1114448168
 H         -5.8922660196        0.3304741690       -2.9086331331
 H         -5.9027792694       -1.1569110619       -3.3432809733
 O         -4.4556889109       -3.7441599416        3.3361160831
 H         -4.4865827182       -4.2791299276        2.5270683271
 H         -5.2816157346       -3.2415155006        3.3188268407
 O         -4.7618203776        3.5419222687        3.8601316946
 H         -4.6331865167        2.6877647579        4.2838697290
 H         -3.8837603388        3.9106722024        3.7038020777
 O         -6.0554386936        3.5952178965        1.4911227263
 H         -6.9699109753        3.3478340268        1.6474860503
 H         -5.6203178626        3.6268877711        2.3663242502
 O         -8.4434383046        1.0375772285        2.7800937943
 H         -8.7651348458        0.2078785559        2.3782437317
 H         -8.6830437234        1.7443975939        2.1638240844
 O          6.4864932870        0.8674007272        3.8963895611
 H          5.9334087653        0.6432266158        4.6663804716
 H          7.1494777750        0.1453577272        3.8054560621
 O          3.0606555382        3.3461686993        4.4968149691
 H          2.3702785303        3.1949939823        5.1668895436
 H          2.7157147764        4.0052539875        3.8751319866
 O          5.9413630707        2.2529679265       -3.9153627457
 H          5.6916172365        2.7317617543       -3.0999708383
 H          5.1821640041        2.3723019990       -4.5024821896
 O          2.0555246181       -2.0185133206       -4.6343499156
 H          2.9912208306       -2.1461022238       -4.3986211032
 H          1.6460368518       -1.4646629120       -3.9296966550
 O          0.8919768479       -4.0974622445       -3.4095971447
 H          1.3650424538       -3.5220296864       -4.0439299875
 H         -0.0457284031       -3.8978802171       -3.5586802644
 O          7.1688469301       -2.8182296500        0.0046436893
 H          7.4346380837       -1.8863610339        0.1253856626
 H          6.4341292042       -2.8379534818       -0.6235988272
 O          9.7397631737        1.7652740878        0.1201131684
 H         10.6336695869        1.9098609814        0.4267113726
 H          9.1398239799        2.2074494670        0.7680182695
 O          1.0254288337        2.4003710025        5.9522949910
 H          1.2477836119        1.4640363652        5.8847923272
 H          0.0664712131        2.4642555950        5.8971942416
 O          2.5436856598        4.4479647594        2.0763486655
 H          2.6608587028        5.1692100409        1.4166225989
 H          3.0511460728        3.7074650777        1.7063173864
 O          4.7120986454       -2.3646564752       -4.1221158198
 H          4.9962196748       -1.4733293657       -3.7875376583
 H          5.2308058241       -2.5482194414       -4.9043278831
 O          0.1776923331       -5.9274897874       -1.4120485994
 H          0.5013155782       -5.6261420766       -2.2740432410
 H          0.9599144942       -5.9646345657       -0.8384868553
 O         -1.9101371719       -4.8460416232        2.4311152754
 H         -2.4334898692       -4.8445935998        3.2335675968
 H         -2.3794015708       -4.2436855004        1.8017151949
 O          5.1212080504        2.9181441114        2.7394019590
 H          5.6797799284        2.2380122494        3.1437556463
 H          4.5684397640        3.2499920950        3.4575526705
 O          7.8755808976        1.6115031204       -1.9009059566
 H          8.6696852851        1.9493162798       -1.4671903380
 H          7.7407679214        2.0650590857       -2.7378980388
 O         -7.2386564322        2.8341560145       -1.1806736788
 H         -7.7809035985        2.3887602393       -1.8797283656
 H         -6.7027074617        2.1060172958       -0.7862541069
 O          2.1580720405        0.3084538254       -6.0752950349
 H          2.1928507102       -0.5957755869       -5.7120552365
 H          1.2193314934        0.5412868691       -6.0563161613
 O         -1.0922510551        4.0844508979       -3.7120435036
 H         -1.9467088763        4.1989684908       -3.2538531220
 H         -1.2894973978        3.9563089196       -4.6408770495
 O         -3.6423401939        4.4637997332       -2.8077841942
 H         -3.9100942331        5.0685080561       -3.4998356301
 H         -4.2330703188        4.6770595481       -2.0522896389
 O         -4.8248967829       -2.5222042750       -3.5673218578
 H         -4.8859909962       -3.0273252039       -4.3775417666
 H         -4.6042873632       -3.1460011914       -2.8594163462
 O         -2.2926828027       -6.2163646711       -0.0044443946
 H         -1.5185066071       -6.2968180528       -0.5784501681
 H         -1.9409344149       -6.0127403039        0.8747238990
 O          3.1682600179        5.8868924855       -0.0428914012
 H          4.1144715511        5.7186710108        0.0411091729
 H          2.8317647753        5.2415145097       -0.6849519474
 O         -1.0860949150       -0.4308978237        6.1231007492
 H         -1.4239827422        0.4555635618        6.2724115635
 H         -1.7748203048       -0.9331831359        5.6675488993
 O          3.5316861758        4.7107805604       -3.3655792189
 H          3.3369023438        3.9792598601       -3.9674174552
 H          2.6776795595        5.1266515588       -3.1563778395
 O         -4.7378251789       -5.2936035442        0.9660479829
 H         -3.8975976840       -5.6119309262        0.5936108681
 H         -5.3463601306       -6.0298335953        0.9722587465
 O         -8.8927189612        2.9077112240        0.7934258808
 H         -9.3536661483        3.7444860691        0.8222087516
 H         -8.2511861110        2.9611655024        0.0206570644
 O          4.5172960316       -0.1524152327        5.5177676600
 H          3.5928630183        0.0954831258        5.6151277828
 H          4.5159839636       -1.0899660109        5.2755173949
 O          8.0398401023       -1.0940938600       -2.3659044269
 H          8.4086488529       -1.6678943535       -1.6913501797
 H          8.2261638518       -0.1741995212       -2.1103952118
 O          1.0220386800        5.6666371037       -2.7938910929
 H          0.2524861396        5.1634605448       -3.0993138127
 H          0.8079072676        6.0208703999       -1.9293547357
 O         -0.5580892867        0.5128164500       -5.5314669106
 H         -1.3140071289        0.9846942041       -5.1559918002
 H         -0.8156416428       -0.4071747601       -5.6061776706
 O         -8.6667433487        1.2843173784       -2.7364097691
 H         -8.0544644647        0.6330148322       -3.1046973284
 H         -9.1421965791        0.8401210925       -2.0125736361
 O         -5.5703343216        5.0268491359       -1.0512110839
 H         -5.4329343299        5.2008266160       -0.1161378727
 H         -6.2430749978        4.3267165196       -1.1010157561
 O        -10.0173826798        0.6667660202       -0.3875735385
 H        -10.9267535276        0.8599440992       -0.6132669268
 H         -9.6749739555        1.4438134082        0.0904922808
