 xtb: 6.5.1 (579679a)
          10122201333D

 75 50  0     0  0            999 V2000
   -2.1432    1.3255   -1.2063 o   0  0  0  0  0  0  0  0  0  0  0  0
   -1.4966    0.7478   -0.7488 h   0  0  0  0  0  0  0  0  0  0  0  0
   -2.8775    1.4258   -0.5741 h   0  0  0  0  0  0  0  0  0  0  0  0
   -2.2998   -0.0308   -3.4686 o   0  0  0  0  0  0  0  0  0  0  0  0
   -2.9993    0.2950   -4.0345 h   0  0  0  0  0  0  0  0  0  0  0  0
   -2.3254    0.5156   -2.6422 h   0  0  0  0  0  0  0  0  0  0  0  0
   -1.7416   -2.2582   -1.9599 o   0  0  0  0  0  0  0  0  0  0  0  0
   -1.9364   -1.6083   -2.6547 h   0  0  0  0  0  0  0  0  0  0  0  0
   -2.5910   -2.4666   -1.5324 h   0  0  0  0  0  0  0  0  0  0  0  0
   -0.4051    1.8314    3.6686 o   0  0  0  0  0  0  0  0  0  0  0  0
   -0.4583    0.9251    3.3155 h   0  0  0  0  0  0  0  0  0  0  0  0
    0.4799    2.1307    3.4238 h   0  0  0  0  0  0  0  0  0  0  0  0
   -4.0059   -2.7285   -0.5152 o   0  0  0  0  0  0  0  0  0  0  0  0
   -4.1623   -2.0472    0.1967 h   0  0  0  0  0  0  0  0  0  0  0  0
   -4.8497   -3.1497   -0.6761 h   0  0  0  0  0  0  0  0  0  0  0  0
   -0.5163   -0.6261   -0.2504 o   0  0  0  0  0  0  0  0  0  0  0  0
    0.3317   -0.4304   -0.6762 h   0  0  0  0  0  0  0  0  0  0  0  0
   -0.9456   -1.3220   -0.7980 h   0  0  0  0  0  0  0  0  0  0  0  0
    3.4942   -1.0691   -1.2687 o   0  0  0  0  0  0  0  0  0  0  0  0
    3.0257   -1.8159   -0.8523 h   0  0  0  0  0  0  0  0  0  0  0  0
    2.8025   -0.4159   -1.4610 h   0  0  0  0  0  0  0  0  0  0  0  0
   -0.0738   -3.9731   -0.5569 o   0  0  0  0  0  0  0  0  0  0  0  0
   -0.7502   -4.0861    0.1458 h   0  0  0  0  0  0  0  0  0  0  0  0
   -0.5326   -3.5046   -1.2673 h   0  0  0  0  0  0  0  0  0  0  0  0
    1.4707    0.7759   -1.5732 o   0  0  0  0  0  0  0  0  0  0  0  0
    1.0104    0.8525   -2.4550 h   0  0  0  0  0  0  0  0  0  0  0  0
    0.9678    1.3617   -0.9512 h   0  0  0  0  0  0  0  0  0  0  0  0
    3.2762    2.6699   -1.9267 o   0  0  0  0  0  0  0  0  0  0  0  0
    3.6457    2.6104   -2.8079 h   0  0  0  0  0  0  0  0  0  0  0  0
    2.6722    1.8876   -1.8248 h   0  0  0  0  0  0  0  0  0  0  0  0
    1.9543    1.8753    2.1157 o   0  0  0  0  0  0  0  0  0  0  0  0
    2.7845    2.2358    1.7331 h   0  0  0  0  0  0  0  0  0  0  0  0
    2.0878    0.9129    2.1526 h   0  0  0  0  0  0  0  0  0  0  0  0
   -1.8858    2.9722    1.7501 o   0  0  0  0  0  0  0  0  0  0  0  0
   -1.2087    2.8034    1.0686 h   0  0  0  0  0  0  0  0  0  0  0  0
   -1.4768    2.6449    2.5807 h   0  0  0  0  0  0  0  0  0  0  0  0
   -3.8694    1.5820    0.8650 o   0  0  0  0  0  0  0  0  0  0  0  0
   -3.1306    2.1077    1.2999 h   0  0  0  0  0  0  0  0  0  0  0  0
   -4.6480    2.1366    0.9073 h   0  0  0  0  0  0  0  0  0  0  0  0
    0.2050    1.1665   -3.8107 o   0  0  0  0  0  0  0  0  0  0  0  0
   -0.1636    2.0469   -3.5730 h   0  0  0  0  0  0  0  0  0  0  0  0
   -0.5674    0.5833   -3.8687 h   0  0  0  0  0  0  0  0  0  0  0  0
    0.2802    2.3842    0.1619 o   0  0  0  0  0  0  0  0  0  0  0  0
    0.5836    3.2338   -0.2005 h   0  0  0  0  0  0  0  0  0  0  0  0
    0.8589    2.1973    0.9451 h   0  0  0  0  0  0  0  0  0  0  0  0
    4.1662    2.5133    0.7512 o   0  0  0  0  0  0  0  0  0  0  0  0
    3.9587    2.6595   -0.1826 h   0  0  0  0  0  0  0  0  0  0  0  0
    4.5452    1.6185    0.7992 h   0  0  0  0  0  0  0  0  0  0  0  0
   -0.2494   -0.6053    2.4115 o   0  0  0  0  0  0  0  0  0  0  0  0
   -0.3949   -0.5706    1.4413 h   0  0  0  0  0  0  0  0  0  0  0  0
    0.6881   -0.8133    2.5205 h   0  0  0  0  0  0  0  0  0  0  0  0
    1.3683    4.4584   -1.2211 o   0  0  0  0  0  0  0  0  0  0  0  0
    2.1206    3.9131   -1.5354 h   0  0  0  0  0  0  0  0  0  0  0  0
    1.7404    5.2568   -0.8463 h   0  0  0  0  0  0  0  0  0  0  0  0
   -2.3621   -2.0332    3.1318 o   0  0  0  0  0  0  0  0  0  0  0  0
   -2.4458   -2.0245    4.0851 h   0  0  0  0  0  0  0  0  0  0  0  0
   -1.5551   -1.5136    2.9119 h   0  0  0  0  0  0  0  0  0  0  0  0
    2.1386   -2.8953    0.2397 o   0  0  0  0  0  0  0  0  0  0  0  0
    1.2573   -3.2523   -0.0738 h   0  0  0  0  0  0  0  0  0  0  0  0
    2.6426   -3.6693    0.4925 h   0  0  0  0  0  0  0  0  0  0  0  0
    2.5012   -0.8609    2.0256 o   0  0  0  0  0  0  0  0  0  0  0  0
    3.4200   -0.6200    1.8310 h   0  0  0  0  0  0  0  0  0  0  0  0
    2.2985   -1.5800    1.3972 h   0  0  0  0  0  0  0  0  0  0  0  0
    4.8786   -0.1527    0.7600 o   0  0  0  0  0  0  0  0  0  0  0  0
    4.4156   -0.4778   -0.0613 h   0  0  0  0  0  0  0  0  0  0  0  0
    5.7778   -0.4759    0.7137 h   0  0  0  0  0  0  0  0  0  0  0  0
   -2.1515   -4.0163    1.1472 o   0  0  0  0  0  0  0  0  0  0  0  0
   -2.8300   -3.6853    0.5366 h   0  0  0  0  0  0  0  0  0  0  0  0
   -2.1857   -3.4252    1.9131 h   0  0  0  0  0  0  0  0  0  0  0  0
   -0.8870    3.3302   -2.6752 o   0  0  0  0  0  0  0  0  0  0  0  0
   -1.3525    2.7837   -2.0182 h   0  0  0  0  0  0  0  0  0  0  0  0
   -0.2328    3.8507   -2.1950 h   0  0  0  0  0  0  0  0  0  0  0  0
   -4.3433   -1.0601    1.4613 o   0  0  0  0  0  0  0  0  0  0  0  0
   -4.1438   -0.1263    1.2728 h   0  0  0  0  0  0  0  0  0  0  0  0
   -3.6823   -1.3612    2.1088 h   0  0  0  0  0  0  0  0  0  0  0  0
  1  2  1  0  0  0  0
  1  3  1  0  0  0  0
  4  5  1  0  0  0  0
  4  6  1  0  0  0  0
  7  8  1  0  0  0  0
  7  9  1  0  0  0  0
 10 11  1  0  0  0  0
 10 12  1  0  0  0  0
 13 14  1  0  0  0  0
 13 15  1  0  0  0  0
 16 17  1  0  0  0  0
 16 18  1  0  0  0  0
 19 20  1  0  0  0  0
 19 21  1  0  0  0  0
 22 23  1  0  0  0  0
 22 24  1  0  0  0  0
 25 26  1  0  0  0  0
 25 27  1  0  0  0  0
 28 29  1  0  0  0  0
 28 30  1  0  0  0  0
 31 32  1  0  0  0  0
 31 33  1  0  0  0  0
 34 35  1  0  0  0  0
 34 36  1  0  0  0  0
 37 38  1  0  0  0  0
 37 39  1  0  0  0  0
 40 41  1  0  0  0  0
 40 42  1  0  0  0  0
 43 44  1  0  0  0  0
 43 45  1  0  0  0  0
 46 47  1  0  0  0  0
 46 48  1  0  0  0  0
 49 50  1  0  0  0  0
 49 51  1  0  0  0  0
 52 53  1  0  0  0  0
 52 54  1  0  0  0  0
 55 56  1  0  0  0  0
 55 57  1  0  0  0  0
 58 59  1  0  0  0  0
 58 60  1  0  0  0  0
 61 62  1  0  0  0  0
 61 63  1  0  0  0  0
 64 65  1  0  0  0  0
 64 66  1  0  0  0  0
 67 68  1  0  0  0  0
 67 69  1  0  0  0  0
 70 71  1  0  0  0  0
 70 72  1  0  0  0  0
 73 74  1  0  0  0  0
 73 75  1  0  0  0  0
M  END
