  87

 H         -0.5425054112       -1.1597996584        0.9180873603
 C         -0.6112510051       -0.5412956740        0.0100749183
 H         -0.5391308395       -1.1969144469       -0.8712436602
 C          0.5103658647        0.5037878335       -0.0094871836
 H          0.3911098457        1.1518924074        0.8600966293
 H          0.3944399221        1.1152669957       -0.9056411627
 O         -1.7891825170        0.2100258094       -0.0077307040
 H         -2.5646581753       -0.3620747641        0.0026734602
 N          1.8637421187       -0.1172780950        0.0059475205
 H          1.9871272141       -0.7237037739       -0.8163106222
 H          1.9839787968       -0.6890763206        0.8531041600
 H          2.5930828886        0.6072400318       -0.0077051379
 O          2.3942251789       -1.0764686978        2.5017958164
 H          2.6824282472       -0.1645441113        2.6759595441
 H          1.4944932998       -1.1153857929        2.8720892993
 O          2.6615375462       -1.8997140819       -1.8845735131
 H          3.3425409632       -1.4280710827       -2.4079708471
 H          3.1083160871       -2.3329220271       -1.1441066232
 O          3.3941760803        2.0153061135       -0.4740336092
 H          2.8403612065        2.7414969116       -0.1663747996
 H          3.1740050584        1.9494553246       -1.4336990065
 O         -0.1742796634       -0.5450335619        3.2512507448
 H         -1.1258884322       -0.7196271933        3.1925338707
 H         -0.0929908325        0.4166646475        3.3334319926
 O         -2.1052483969        2.4817734594        1.4142809487
 H         -1.8707222854        1.6489276689        0.9548563996
 H         -3.0170624566        2.3191951853        1.7260042753
 O         -3.0163918500       -2.1835490844        0.5339442391
 H         -3.8652578453       -2.1795863275        0.0462472134
 H         -2.3991619440       -2.7599430225        0.0563074361
 O         -0.0666202922        2.2780519027        3.1696605138
 H         -0.8099049706        2.4643403486        2.5553061614
 H         -0.2324004886        2.7885308326        3.9628245837
 O          4.4882604427       -0.3501059876       -3.0769959270
 H          4.9385166770       -0.1050984775       -2.2217521687
 H          5.1849329303       -0.5250037612       -3.7092892824
 O          4.1972357643       -1.9928549189        0.5584832413
 H          4.8184850509       -2.6710360232        0.8266683295
 H          3.6060023606       -1.8448357881        1.3149707790
 O          2.5557191541        1.6417181249        2.4064160523
 H          3.1759961831        2.3594877778        2.5348673380
 H          1.6842161389        1.9589649434        2.6910087368
 O         -2.9339215003       -0.8815244856        2.8146420673
 H         -2.9393844269       -1.4656674230        2.0224336582
 H         -3.4525602210       -1.3313571788        3.4829423930
 O         -5.2927366548       -1.6538091129       -0.7625978114
 H         -5.1771882410       -0.7045310450       -0.9434299975
 H         -5.8505191170       -1.6768078410        0.0307019638
 O         -1.0791051907       -3.6963041627       -0.8102343384
 H         -0.8276635824       -3.1981319452       -1.6127027560
 H         -1.3456848679       -4.5705346599       -1.0978881168
 O          0.2109623918       -2.3964809257       -2.8655119645
 H          1.1132289589       -2.3177046560       -2.4901767513
 H          0.3040220327       -2.8279783003       -3.7159784368
 O          2.5329799758        1.6289235523       -2.9674323894
 H          3.1969837049        0.9897443126       -3.2659090446
 H          1.6703448848        1.2013859237       -3.1022658820
 O          5.4286604943        0.1734287807       -0.6913379460
 H          5.0678881948       -0.5539382513       -0.1577961986
 H          4.9524148507        0.9756689005       -0.4341631498
 O          0.0760954051        0.3942989498       -3.1603134610
 H         -0.8075008343        0.7776839775       -3.2112927725
 H         -0.0339491427       -0.5681299463       -3.1100626462
 O          1.0560481921        3.4406633563       -1.0074026117
 H          1.3581645389        3.3363616059       -1.9143275950
 H          0.1117067781        3.6470298379       -1.0506894880
 O         -2.4302018389        1.5015049566       -2.2981295933
 H         -2.2052057316        2.4123256693       -2.0448260914
 H         -2.0454391277        0.9476873229       -1.5887660447
 O         -1.7530554842        3.7827042716       -0.9321733842
 H         -2.0723013258        4.6853009939       -0.9336115176
 H         -1.8940811219        3.4297070627       -0.0267923699
 O         -4.7375235079        1.0365614552       -1.0361238654
 H         -3.9512124047        1.2313297107       -1.6016006661
 H         -5.4555456552        1.5847484910       -1.3545850930
 O         -4.4376555007        1.1510143063        1.7499121445
 H         -4.4964838551        1.0400212313        0.7860523144
 H         -3.8772248491        0.4310904312        2.1043961123
 O         -2.7917117095       -1.4584987646       -2.3112992833
 H         -3.6648300109       -1.7994814997       -2.0925682973
 H         -2.9154027846       -0.8129912914       -3.0090011956
 O          1.3466900399       -2.9641688865        0.4908398772
 H          0.5284698703       -3.3016193933        0.0991095036
 H          1.3631222841       -3.2690131671        1.3986249155
 O         -6.3173180214       -0.9405439455        1.7021937758
 H         -7.1773386951       -0.8925044067        2.1184820870
 H         -5.8673431603       -0.0967162142        1.8767536000
