 xtb: 6.5.1 (579679a)
          10122201333D

 75 50  0     0  0            999 V2000
   -1.7974    3.6722   -1.2608 o   0  0  0  0  0  0  0  0  0  0  0  0
   -1.6856    3.4014   -0.2980 h   0  0  0  0  0  0  0  0  0  0  0  0
   -2.2426    4.5189   -1.2480 h   0  0  0  0  0  0  0  0  0  0  0  0
   -2.3133    1.5137   -2.8377 o   0  0  0  0  0  0  0  0  0  0  0  0
   -2.2462    2.3251   -2.3034 h   0  0  0  0  0  0  0  0  0  0  0  0
   -1.4196    1.1236   -2.8293 h   0  0  0  0  0  0  0  0  0  0  0  0
   -2.5768   -2.5817   -2.4103 o   0  0  0  0  0  0  0  0  0  0  0  0
   -2.4517   -2.9834   -1.5340 h   0  0  0  0  0  0  0  0  0  0  0  0
   -3.0679   -1.7539   -2.2483 h   0  0  0  0  0  0  0  0  0  0  0  0
   -0.5709    0.5023    1.7004 o   0  0  0  0  0  0  0  0  0  0  0  0
   -0.7736    0.0538    2.5387 h   0  0  0  0  0  0  0  0  0  0  0  0
    0.3519    0.8088    1.8197 h   0  0  0  0  0  0  0  0  0  0  0  0
   -2.2316   -3.3197    0.2607 o   0  0  0  0  0  0  0  0  0  0  0  0
   -2.4421   -2.3550    0.4652 h   0  0  0  0  0  0  0  0  0  0  0  0
   -2.9947   -3.8304    0.5332 h   0  0  0  0  0  0  0  0  0  0  0  0
   -0.1606   -2.2174   -3.3118 o   0  0  0  0  0  0  0  0  0  0  0  0
   -1.1094   -2.3289   -3.0181 h   0  0  0  0  0  0  0  0  0  0  0  0
   -0.1402   -2.4699   -4.2357 h   0  0  0  0  0  0  0  0  0  0  0  0
    2.6299   -1.9667   -2.3668 o   0  0  0  0  0  0  0  0  0  0  0  0
    2.8733   -1.2267   -2.9746 h   0  0  0  0  0  0  0  0  0  0  0  0
    1.8243   -2.3393   -2.7418 h   0  0  0  0  0  0  0  0  0  0  0  0
    2.7789   -3.6684   -0.1073 o   0  0  0  0  0  0  0  0  0  0  0  0
    1.9240   -4.0265   -0.4094 h   0  0  0  0  0  0  0  0  0  0  0  0
    3.1033   -3.1511   -0.8557 h   0  0  0  0  0  0  0  0  0  0  0  0
    2.8027    0.2284   -3.8274 o   0  0  0  0  0  0  0  0  0  0  0  0
    3.4279    0.8497   -3.4067 h   0  0  0  0  0  0  0  0  0  0  0  0
    1.9171    0.5493   -3.6075 h   0  0  0  0  0  0  0  0  0  0  0  0
    4.3045    1.8966   -2.2839 o   0  0  0  0  0  0  0  0  0  0  0  0
    4.5440    1.3887   -1.4997 h   0  0  0  0  0  0  0  0  0  0  0  0
    3.7581    2.6263   -1.9574 h   0  0  0  0  0  0  0  0  0  0  0  0
    1.8664    1.3767    2.5385 o   0  0  0  0  0  0  0  0  0  0  0  0
    2.5749    1.2886    1.8612 h   0  0  0  0  0  0  0  0  0  0  0  0
    2.0512    0.7110    3.2124 h   0  0  0  0  0  0  0  0  0  0  0  0
   -1.4264    3.0542    1.2166 o   0  0  0  0  0  0  0  0  0  0  0  0
   -0.5702    3.4904    1.4143 h   0  0  0  0  0  0  0  0  0  0  0  0
   -1.2597    2.1064    1.3788 h   0  0  0  0  0  0  0  0  0  0  0  0
   -3.8200   -0.2557   -1.7138 o   0  0  0  0  0  0  0  0  0  0  0  0
   -4.7309   -0.0583   -1.9298 h   0  0  0  0  0  0  0  0  0  0  0  0
   -3.2637    0.4460   -2.1631 h   0  0  0  0  0  0  0  0  0  0  0  0
    0.1955    0.4230   -2.6240 o   0  0  0  0  0  0  0  0  0  0  0  0
    0.5616    0.2565   -1.7278 h   0  0  0  0  0  0  0  0  0  0  0  0
    0.0554   -0.4712   -2.9868 h   0  0  0  0  0  0  0  0  0  0  0  0
    1.1156    3.8689    1.5936 o   0  0  0  0  0  0  0  0  0  0  0  0
    1.6248    3.8242    0.7702 h   0  0  0  0  0  0  0  0  0  0  0  0
    1.4021    3.1076    2.1208 h   0  0  0  0  0  0  0  0  0  0  0  0
    3.4417    1.2935    0.3940 o   0  0  0  0  0  0  0  0  0  0  0  0
    3.1961    2.1719    0.0752 h   0  0  0  0  0  0  0  0  0  0  0  0
    2.7881    0.6735   -0.0043 h   0  0  0  0  0  0  0  0  0  0  0  0
   -0.6908   -0.8699    4.0919 o   0  0  0  0  0  0  0  0  0  0  0  0
   -1.0007   -0.4424    4.8900 h   0  0  0  0  0  0  0  0  0  0  0  0
    0.2882   -0.9135    4.1510 h   0  0  0  0  0  0  0  0  0  0  0  0
    2.5695    3.6851   -0.8526 o   0  0  0  0  0  0  0  0  0  0  0  0
    2.8390    4.5906   -1.0105 h   0  0  0  0  0  0  0  0  0  0  0  0
    1.8022    3.5085   -1.4700 h   0  0  0  0  0  0  0  0  0  0  0  0
   -0.5801   -3.2310    2.5244 o   0  0  0  0  0  0  0  0  0  0  0  0
   -1.1735   -3.3121    1.7617 h   0  0  0  0  0  0  0  0  0  0  0  0
   -0.9046   -2.5010    3.0687 h   0  0  0  0  0  0  0  0  0  0  0  0
    1.6113   -2.0358    1.6080 o   0  0  0  0  0  0  0  0  0  0  0  0
    2.1698   -2.6691    1.0959 h   0  0  0  0  0  0  0  0  0  0  0  0
    0.8192   -2.5490    1.8887 h   0  0  0  0  0  0  0  0  0  0  0  0
    2.0209   -1.0115    3.9791 o   0  0  0  0  0  0  0  0  0  0  0  0
    2.5529   -1.6126    4.5005 h   0  0  0  0  0  0  0  0  0  0  0  0
    1.9748   -1.4023    3.0643 h   0  0  0  0  0  0  0  0  0  0  0  0
    1.5671   -0.3824   -0.4939 o   0  0  0  0  0  0  0  0  0  0  0  0
    1.4055   -0.8946    0.3260 h   0  0  0  0  0  0  0  0  0  0  0  0
    2.0325   -1.0052   -1.0982 h   0  0  0  0  0  0  0  0  0  0  0  0
    0.2417   -4.0431   -1.0813 o   0  0  0  0  0  0  0  0  0  0  0  0
    0.1306   -3.4574   -1.8409 h   0  0  0  0  0  0  0  0  0  0  0  0
   -0.5317   -3.9115   -0.5215 h   0  0  0  0  0  0  0  0  0  0  0  0
    0.5933    3.2129   -2.4636 o   0  0  0  0  0  0  0  0  0  0  0  0
   -0.2549    3.4743   -2.0554 h   0  0  0  0  0  0  0  0  0  0  0  0
    0.5066    2.2703   -2.6591 h   0  0  0  0  0  0  0  0  0  0  0  0
   -2.7632   -0.8488    0.7302 o   0  0  0  0  0  0  0  0  0  0  0  0
   -1.9691   -0.3208    0.9141 h   0  0  0  0  0  0  0  0  0  0  0  0
   -3.1609   -0.5023   -0.0876 h   0  0  0  0  0  0  0  0  0  0  0  0
  1  2  1  0  0  0  0
  1  3  1  0  0  0  0
  4  5  1  0  0  0  0
  4  6  1  0  0  0  0
  7  8  1  0  0  0  0
  7  9  1  0  0  0  0
 10 11  1  0  0  0  0
 10 12  1  0  0  0  0
 13 14  1  0  0  0  0
 13 15  1  0  0  0  0
 16 17  1  0  0  0  0
 16 18  1  0  0  0  0
 19 20  1  0  0  0  0
 19 21  1  0  0  0  0
 22 23  1  0  0  0  0
 22 24  1  0  0  0  0
 25 26  1  0  0  0  0
 25 27  1  0  0  0  0
 28 29  1  0  0  0  0
 28 30  1  0  0  0  0
 31 32  1  0  0  0  0
 31 33  1  0  0  0  0
 34 35  1  0  0  0  0
 34 36  1  0  0  0  0
 37 38  1  0  0  0  0
 37 39  1  0  0  0  0
 40 41  1  0  0  0  0
 40 42  1  0  0  0  0
 43 44  1  0  0  0  0
 43 45  1  0  0  0  0
 46 47  1  0  0  0  0
 46 48  1  0  0  0  0
 49 50  1  0  0  0  0
 49 51  1  0  0  0  0
 52 53  1  0  0  0  0
 52 54  1  0  0  0  0
 55 56  1  0  0  0  0
 55 57  1  0  0  0  0
 58 59  1  0  0  0  0
 58 60  1  0  0  0  0
 61 62  1  0  0  0  0
 61 63  1  0  0  0  0
 64 65  1  0  0  0  0
 64 66  1  0  0  0  0
 67 68  1  0  0  0  0
 67 69  1  0  0  0  0
 70 71  1  0  0  0  0
 70 72  1  0  0  0  0
 73 74  1  0  0  0  0
 73 75  1  0  0  0  0
M  END
