  132

 H         -0.5425054112       -1.1597996585        0.9180873603
 C         -0.6112510051       -0.5412956740        0.0100749183
 H         -0.5391308395       -1.1969144468       -0.8712436601
 C          0.5103658646        0.5037878337       -0.0094871839
 H          0.3911098457        1.1518924075        0.8600966290
 H          0.3944399221        1.1152669957       -0.9056411631
 O         -1.7891825170        0.2100258092       -0.0077307039
 H         -2.5646581752       -0.3620747642        0.0026734602
 N          1.8637421187       -0.1172780949        0.0059475209
 H          1.9871272141       -0.7237037739       -0.8163106226
 H          1.9839787968       -0.6890763206        0.8531041599
 H          2.5930828886        0.6072400318       -0.0077051379
 O          3.2271227575        2.2281134051       -0.3989637107
 H          4.1982179300        2.2957615468       -0.5873101839
 H          2.7807081657        2.1144961307       -1.2727248929
 O          4.3776399561       -0.9019706064        2.5756311628
 H          4.0384307425        0.0076795151        2.5703542428
 H          5.3415747791       -0.8128618290        2.4142581762
 O          1.8080030046       -1.0569835855       -2.5314453390
 H          1.7528326291       -0.1188758688       -2.7802834534
 H          0.9808674591       -1.4673567134       -2.8193857892
 O          3.3883234784        1.6843854183        2.3107388385
 H          2.6424138648        2.1613143067        2.7347847199
 H          3.3167163962        1.8998860485        1.3689046693
 O          3.8762123684       -1.9387708755        0.1114775695
 H          4.1629785728       -1.6801998364        1.0072055548
 H          3.2733569278       -2.6920415416        0.2148731382
 O         -0.8382095887       -1.8578139800       -2.9860529760
 H         -1.6534241012       -2.3825817320       -3.0011304626
 H         -1.1437929596       -0.9313089613       -3.0284699895
 O         -1.8419111507        0.6682407946       -2.6568275782
 H         -2.7503681192        0.5564694776       -2.9630367315
 H         -1.8919192825        0.6229962925       -1.6741089577
 O          1.8590895698       -3.7203850647        0.6494215767
 H          1.0908120650       -3.7362067189        0.0330965039
 H          1.9970843279       -4.6294933958        0.9161633184
 O         -3.9142217797       -1.2443627838       -0.4241694659
 H         -4.6441108969       -1.2347417765        0.2240357231
 H         -4.2219746527       -0.8505577706       -1.2598465152
 O          1.8794496637        1.7330698386       -2.6440635264
 H          2.6275826847        1.9498522936       -3.2226528332
 H          1.1220439525        2.3235083858       -2.8437588367
 O         -0.4835969725        2.9974069402       -2.6117439359
 H         -0.9672320534        2.1553530238       -2.7376290274
 H         -0.5008379195        3.1797137153       -1.6497279150
 O         -4.5773409626        0.2485842489       -2.5983716222
 H         -4.4698492791        0.9660933746       -1.9362412098
 H         -5.5234473608        0.1336564286       -2.7249868295
 O         -4.1794765658        2.0017078113       -0.6493504417
 H         -3.7966816389        1.8441015888        0.2422070630
 H         -3.7764255354        2.8218513817       -0.9901269524
 O          1.7365264549       -1.5349317271        2.2863354365
 H          1.5042264106       -2.4263355471        1.9672965739
 H          2.6134193431       -1.5908492077        2.6884880854
 O         -3.6380767376        1.3014249536        1.9030415269
 H         -3.3676999132        0.3773967394        2.0637527573
 H         -4.5332171822        1.3918796435        2.2532136855
 O         -2.9075306196       -1.2721838378        2.5587079696
 H         -2.6717004456       -1.9861948765        1.9452951171
 H         -2.0865023262       -1.0353294753        3.0241107707
 O         -2.5631924140       -3.3195510111        0.5538974112
 H         -2.8680616837       -2.6121540423       -0.0475427987
 H         -3.3901619657       -3.8258335942        0.7014126473
 O         -0.5778711497        3.5335972337        0.0377307113
 H         -0.7921288466        2.9080053364        0.7542804063
 H          0.2634903193        3.9503343866        0.2830693620
 O         -1.0560578164        2.0583580635        2.3038163874
 H         -0.8842796769        1.1616357143        2.6646383332
 H         -2.0229600796        2.0869464160        2.2024476600
 O         -0.4739482886       -0.3298118385        3.4373591353
 H          0.1792831333       -0.9218797531        3.0241929166
 H         -0.0027586823        0.0618581231        4.1939197581
 O         -0.2651106408       -3.8441150665       -0.9548453353
 H         -0.3344318099       -3.2773684712       -1.7335210434
 H         -1.1061997181       -3.7632952472       -0.4770500632
 O          5.8419916242        2.3750637521       -0.6528008270
 H          6.0649987092        2.5908476868        0.2648512851
 H          6.2930113591        1.5290353477       -0.8324782827
 O         -6.4068738843        1.1671391854        2.3273665189
 H         -6.6168648444        1.5212841927        1.4381808890
 H         -7.0618857421        1.5075376781        2.9362855607
 O          1.2891686164        3.1338455786        3.1256081371
 H          0.3830513086        2.8303791771        2.9214122874
 H          1.4795001946        3.8314352366        2.4837157797
 O          5.9928783812        2.4168112253        2.1146058229
 H          6.3567836975        2.8811105385        2.8672600092
 H          5.0657766003        2.1904399432        2.3346962182
 O         -6.7210061731        2.0407294534       -0.2064619388
 H         -7.0685821500        2.9106468328       -0.4063792539
 H         -5.7297905082        2.0935609553       -0.3666323101
 O          4.4956339458        1.8259635216       -3.1837888782
 H          5.1595977069        2.3366280376       -2.7132844197
 H          4.5962842936        0.9080705574       -2.8812522265
 O          1.9748307380        4.3545773746        0.6916640892
 H          2.4749371177        3.6284062487        0.2581904915
 H          2.3357004008        5.1766998965        0.3601442708
 O          6.8090128109       -0.2325415187        1.7140986808
 H          6.7344848151        0.7227323909        1.8596673929
 H          6.9153568450       -0.3486309028        0.7594031471
 O          4.5635609513       -0.7977382806       -2.1786843107
 H          4.3411743171       -1.2233346769       -1.3225858200
 H          3.9096280409       -1.1564316773       -2.7878678847
 O          6.9473405941       -0.0885854269       -1.1155980601
 H          7.7352956040       -0.3354668506       -1.6012543043
 H          6.1853673428       -0.4729669404       -1.5868718787
 O         -5.5448549882       -1.3851397751        1.7359805252
 H         -4.7495875658       -1.4230881108        2.2886414113
 H         -5.9882918496       -0.5578416073        1.9805095177
 O         -3.1504181655       -3.2607412410       -2.4090923157
 H         -4.0488590766       -2.9582687247       -2.2074950944
 H         -3.1324847010       -4.2059161883       -2.2520269592
 O         -7.1826090130       -0.2569755772       -1.6241873456
 H         -7.0427820227        0.5246880568       -1.0530865297
 H         -8.1309122737       -0.3784251876       -1.6834865639
 O         -5.1530305775       -3.9644171283        0.6177367041
 H         -5.4892604917       -3.2910927281        1.2221351567
 H         -5.4297634115       -3.6630009881       -0.2604273190
 O         -5.8849823154       -2.7140607048       -1.8236505547
 H         -6.2978261144       -1.8468402499       -1.6633972337
 H         -6.4084117304       -3.1458517872       -2.4985159501
 O          1.3293276379        0.9734936201        4.9951511480
 H          2.2184811663        0.6246284641        4.9139121179
 H          1.3403353617        1.8648937038        4.6256221823
 O         -3.1155365528        3.8910699896       -2.3038725057
 H         -3.5612515589        3.9458106084       -3.1486953416
 H         -2.1686324517        3.7842091171       -2.4973744563
 O         -3.2259352261        4.1389426036        0.8285971359
 H         -2.3789553243        4.1097836270        0.3615398508
 H         -3.1751001584        4.8709929953        1.4416863623
 O         -0.4878457218       -3.2176584557        2.4141857609
 H         -0.7038193855       -3.7275050166        3.1945659208
 H         -1.1484799030       -3.4360175014        1.7417004098
