17

H 0.563986000 2.422472000 0.000000000
C 0.636705000 1.330365000 0.000000000
C -0.008409000 -0.791109000 1.217932000
C -0.008409000 -0.791109000 -1.217932000
C -0.008409000 0.746503000 -1.266160000
C -0.008409000 0.746503000 1.266160000
H 1.026104000 -1.153737000 1.277774000
H 1.026104000 -1.153737000 -1.277774000
H -1.043945000 1.102626000 -1.347214000
H -1.043945000 1.102626000 1.347214000
H 1.708067000 1.089884000 0.000000000
H -0.535133000 -1.206822000 2.081893000
H -0.535133000 -1.206822000 -2.081893000
H 0.516109000 1.096021000 -2.162630000
H 0.516109000 1.096021000 2.162630000
N -0.602184000 -1.352876000 0.000000000
H -1.601445000 -1.165322000 0.000000000
