  106

 H         -0.0000000000       -0.0000000000        0.0000000000
 O         -1.2126079160       -2.7834859643       -0.8110239969
 H         -0.6486937627       -3.0900384107       -1.5403187476
 H         -0.9653970830       -3.3400684553       -0.0510384783
 O         -0.9789846270       -0.3739440734       -0.0178196303
 H         -1.5467353263        0.2862617001       -0.5778246141
 H         -1.0234830531       -1.3155245914       -0.3961045343
 O         -2.3242144999        1.2319153213       -1.3987824954
 H         -1.6621435951        1.6618355802       -1.9845995835
 H         -2.8493688153        0.6137174921       -1.9302244913
 O         -0.2386112644        0.1353183607        2.4315734059
 H         -0.6210233689        0.9048385158        1.9776900463
 H         -0.3086714710        0.3075174478        3.3910582385
 O         -1.9854211329       -1.8723760447        2.3270096093
 H         -1.3328875219       -1.1482680158        2.1795144788
 H         -2.5875392818       -1.4942396709        2.9823635094
 O          1.2936206255        0.6482532596        0.1025164231
 H          1.3890397897        1.2255621148        0.8848089978
 H          1.4997418259        1.2029421779       -0.6825663080
 O         -1.4929740304        2.2701196426        1.2736188460
 H         -2.3852076383        1.8861094345        1.1720507327
 H         -1.3584268148        2.8719796240        0.5237264373
 O         -1.0155570361        4.1321486128       -0.6869879664
 H         -1.4934969755        4.9342112843       -0.8985370152
 H         -0.8728514444        3.6608741010       -1.5284792182
 O          0.2405148016       -0.1118588049       -2.4941956290
 H          0.7687703899       -0.7166863489       -1.9232405472
 H          0.8924275076        0.2347422995       -3.1238864954
 O          1.6991922263       -1.8243948823       -1.1813631636
 H          2.5991786946       -1.5253364686       -1.4496665738
 H          1.6502683269       -1.8492237027       -0.2061069724
 O         -3.9012399134        1.0734832571        1.2995358353
 H         -3.8621813500        0.1698601351        0.8673800859
 H         -4.6877763313        1.4988709908        0.9596295936
 O         -3.4570258907       -1.0028771576       -2.4596779345
 H         -2.7002167148       -1.3569496413       -2.9829671345
 H         -4.2584627623       -1.3621258937       -2.8384536625
 O          1.4022681980       -1.7517674020        1.4779641217
 H          0.8820082398       -0.9795116279        1.7734178869
 H          1.1763673421       -2.4535775359        2.1119857497
 O          1.6924050831        2.3074026886        2.2273342107
 H          0.9658029857        2.6042592611        2.8003019275
 H          2.2342208843        1.7121139443        2.7749658915
 O         -3.7808196588       -1.3239873020        0.3226584739
 H         -3.0861716461       -1.7391362257        0.8662485623
 H         -3.5212836148       -1.3955482667       -0.6069463859
 O          2.0286530669        2.3248212388       -1.8170949430
 H          2.9447065293        2.0255451246       -1.7598762825
 H          1.9761776399        3.0967799573       -1.2004371254
 O          4.2697021277        1.2007206841       -0.5672051957
 H          4.0292798706        0.6078463444        0.1864008390
 H          5.0885810668        1.6320025717       -0.3249809659
 O          3.8274188632       -0.6532675233        1.3043067287
 H          4.2997760328       -1.4148439304        0.9059768865
 H          2.8946505263       -0.9608303084        1.3138808675
 O          3.9387657414       -0.9000903603       -2.2379752367
 H          4.1786851073       -0.1202267397       -1.7032439598
 H          3.5170879666       -0.5445758029       -3.0378563384
 O          0.1063741790       -3.2786262670        3.3184901139
 H          0.5299695907       -2.7127552937        3.9953397710
 H         -0.7540487874       -2.8512614905        3.1320005328
 O         -0.5713645654        3.1768358197        3.5882398450
 H         -0.6671040007        4.1229534893        3.6931179300
 H         -1.0415346076        2.9252649530        2.7600757034
 O         -0.8588164584        0.7691260963        4.9508945762
 H         -1.7839002140        0.5514198546        4.7558222043
 H         -0.7632390703        1.7196652984        4.7942721613
 O         -3.2985649760        0.1032538827        3.7629210330
 H         -4.1422622554       -0.0625010603        4.1802085294
 H         -3.4927184463        0.5528499431        2.9153332939
 O         -1.2929379786       -1.6955480367       -3.8227548291
 H         -1.0012182104       -2.5927989862       -3.6354190111
 H         -0.6888014607       -1.1000522961       -3.2763328811
 O          1.6773742793        4.0974357889        0.1008559499
 H          1.7900545498        3.5649707794        0.9041544840
 H          0.7270250883        4.2509555432       -0.0044058775
 O         -0.5123740211        2.5758342122       -2.8678554172
 H          0.4170272179        2.4129005167       -2.6313414893
 H         -0.6628916813        2.0989516040       -3.7033901405
 O          2.3325262691        0.1339242747       -4.2221461569
 H          2.0407764152       -0.7234342640       -4.6127677029
 H          2.5304266219        0.7245124531       -4.9479308093
 O          1.2944781797       -2.1732859926       -5.0162876192
 H          1.2210877374       -2.7941361540       -4.2712310915
 H          0.3921292547       -1.9728010541       -5.2824836739
 O          1.1512810100       -1.2732223592        4.7830134269
 H          1.8394851857       -0.7143679156        4.3895999602
 H          0.4956561290       -0.6693766569        5.1508802670
 O          4.4678030047       -2.7747746937       -0.1899797434
 H          3.6771985571       -3.3286444459       -0.2918546203
 H          4.6197694652       -2.3681696209       -1.0510853736
 O          0.6343906772       -3.6170190422       -2.7222726166
 H          1.1671090606       -3.0138739775       -2.1389712467
 H          0.9933273409       -4.4899529350       -2.5517464549
 O          3.1030292213        0.4275251923        3.6440415231
 H          3.5094438134       -0.0110777848        2.8665226604
 H          3.8119258947        0.6298751311        4.2537949264
 O         -0.1635570601       -4.5554780439        0.9909357660
 H         -0.0084930095       -4.1764411926        1.8802314876
 H         -0.6731885429       -5.3550820173        1.1251608175
 O         -1.2403921905        0.9488836888       -4.9487684637
 H         -2.0863387268        1.2314282491       -5.2951973926
 H         -1.3244983248        0.0116312990       -4.7305501451
 O          2.2151583444       -4.4978560104       -0.4169175332
 H          2.7078299344       -5.2089518768       -0.0083511524
 H          1.3831447223       -4.4265990890        0.0832793555
