  537

 H         -0.5425048610       -1.1597996989        0.9180872978
 C         -0.6112507807       -0.5412961945        0.0100745382
 H         -0.5391312150       -1.1969139541       -0.8712461735
 C          0.5103657515        0.5037853216       -0.0094868461
 H          0.3911094092        1.1518942357        0.8600956144
 H          0.3944395833        1.1152678184       -0.9056412627
 O         -1.7891820973        0.2100243154       -0.0077311689
 H         -2.5646604322       -0.3620755958        0.0026731612
 N          1.8637422128       -0.1172745926        0.0059483219
 H          1.9871272313       -0.7237047143       -0.8163117392
 H          1.9839783560       -0.6890754866        0.8531030134
 H          2.5930799514        0.6072425475       -0.0077056220
 O          3.7420265477       -1.8164798880        0.9190945483
 H          4.1581688802       -1.4035483439        0.1394720960
 H          3.8338699047       -2.7725262739        0.7744783580
 O          1.5420426105       -1.7428425089        2.4165584643
 H          0.8174583014       -1.2664050121        2.8864926044
 H          2.1662913118       -2.0431367246        3.0770176456
 O          2.1592978184       -2.0545536068       -1.7377858639
 H          1.8258173464       -2.7062893272       -1.0977649553
 H          1.8074516914       -2.2571839993       -2.6268415887
 O         -1.0178795927       -3.1353317775        3.2859305747
 H         -1.6210977886       -2.5485438600        3.7814682082
 H         -0.2174377124       -3.2270470951        3.8342313464
 O         -0.9672700245       -2.0567470234       -5.7844390738
 H         -0.2671692291       -1.6733824262       -6.3486485333
 H         -1.7278056203       -1.4752244994       -5.9027938808
 O         -3.3229687420       -1.9429172287       -0.1667197847
 H         -3.1832787531       -2.0356837074       -1.1248929909
 H         -2.6846527508       -2.5503241663        0.2477267379
 O         -2.1868023982        0.1597396354       -3.4221947518
 H         -2.1893560567       -0.7629103829       -3.0693992137
 H         -2.5124867016        0.0691287684       -4.3466156588
 O         -4.3854578685        0.0316435439       -1.7985504044
 H         -3.6523210125        0.3477267098       -2.3456408044
 H         -5.0372162941        0.7440120629       -1.6951032620
 O         -2.5973857049       -0.2109843229        2.5509821974
 H         -2.9545701318       -1.1175054892        2.5411153363
 H         -3.2758937935        0.3136673328        3.0223889955
 O         -3.3059837194        2.2834641768       -0.7270049076
 H         -2.6149863723        1.6386829801       -0.4978737865
 H         -3.0784727633        3.1434042335       -0.3295312627
 O         -0.8231592947        2.3985214465       -2.6779575351
 H         -1.4150366835        1.6724322094       -2.9236953842
 H         -0.9339432041        2.5734886746       -1.7223879437
 O          1.2474702700       -3.4685555249        0.4184750780
 H          1.4751562177       -2.8281611421        1.1210605157
 H          0.2724870446       -3.4316936313        0.3399232484
 O          3.8728287679       -1.0189208169       -3.9913960853
 H          4.8388771477       -0.9065672235       -3.9640650889
 H          3.7057328553       -1.9515708553       -3.7729127362
 O          3.8101044064        0.0993199009        2.7343399384
 H          3.8246514474       -0.6463698782        2.1009786604
 H          3.6944699878       -0.3006893503        3.6182369062
 O          3.9944659416        3.4726692075       -1.4312771260
 H          3.0773927930        3.5455561465       -1.7597908703
 H          4.4659403217        2.8516452409       -2.0176058469
 O          1.6151815624        3.7484733698        1.0484058157
 H          1.6822654131        3.0012443783        1.6696227595
 H          2.4699448967        4.1975614235        1.0035179197
 O         -2.3676818332       -2.2959628082       -2.6338415250
 H         -1.5677674997       -2.7977566469       -2.3894738642
 H         -2.7651430268       -2.7464728359       -3.4087210814
 O         -3.4964916088        3.3220911983        2.5759892299
 H         -4.0931072286        2.6294845247        2.2326368918
 H         -3.8769362932        3.6131389701        3.4136751727
 O         -1.3023620505        2.1301510460        2.0053580161
 H         -1.6519850054        1.2453245163        1.8036154364
 H         -2.1059962812        2.6640616327        2.2248114186
 O         -0.7707422103        3.3865058841       -0.2386615252
 H         -0.8260089365        2.9069693867        0.6122938183
 H         -1.3592214604        4.1495573190       -0.1484114567
 O          1.4098533320        3.7496076371       -1.8104097798
 H          0.8122077235        3.3006750939       -2.4208470006
 H          1.0323294914        3.6352461444       -0.9196209536
 O         -5.0971478203        1.7346743021        1.1477282695
 H         -4.5407228177        1.8546517714        0.3522875921
 H         -5.6814320532        2.5105026182        1.2039223760
 O          3.7481056837        1.6632849980        0.3945318330
 H          4.6273604766        1.2396544068        0.2659500345
 H          3.7606222408        2.4139507293       -0.2459098827
 O         -0.2070420575        5.6122234201        1.5616275886
 H          0.3511039763        4.8227990543        1.3623398890
 H         -0.4159658535        5.9893405847        0.6819527716
 O         -1.3897957602       -3.5692500197        0.6841705105
 H         -1.3295971395       -3.4438068051        1.6499609967
 H         -1.5110239069       -4.5121033085        0.4876681744
 O          4.0152757362       -4.3951026279        0.1661174886
 H          4.0567702122       -4.8870393945        1.0091079050
 H          3.1638284680       -4.6056269326       -0.2421631724
 O         -0.8907897062        2.5782939388        4.5695379081
 H         -0.0518842730        2.9975353336        4.8008629626
 H         -0.8816081596        2.4215478543        3.6020819271
 O          4.6339780911       -0.9169980078       -1.3965416716
 H          5.3324481999       -1.5679586951       -1.6087442344
 H          3.8075886947       -1.3095330010       -1.7295010779
 O         -5.4938694608       -0.9082025691        0.8835873623
 H         -5.3874947942        0.0532027282        1.0037467816
 H         -4.6588421423       -1.2555128972        0.5115152065
 O         -3.7535524517       -2.6187176213        2.7251658509
 H         -3.9748344391       -3.2079644860        1.9838287417
 H         -3.8409073753       -3.1490864430        3.5287991432
 O         -0.2013381583       -0.2066257278        3.6026248370
 H          0.2515820131        0.5936086191        3.2747235996
 H         -1.1304851885       -0.2084566148        3.2624605142
 O         -4.5644671127        0.9768083506        3.8734940825
 H         -4.7301951250        0.1735248991        4.4167612559
 H         -5.3939348765        1.0881859505        3.3664449284
 O          6.3472381654        0.8815538163        2.8015418017
 H          6.5283270147        1.7225644883        3.2629515023
 H          5.3741931371        0.7196009340        2.8159037515
 O          2.2992574403        0.7895426651       -2.5758259061
 H          2.8989336040        0.1279218819       -2.9586060091
 H          2.5554690492        1.6348438251       -2.9873190801
 O          0.3904474818        0.1144797843       -4.2484302269
 H          0.9974914866        0.4318475466       -3.5381674930
 H         -0.5105869908        0.0869575706       -3.8817142400
 O          3.8086772784        5.4607782090        0.3980653470
 H          4.6223814463        5.7672747735        0.8373410456
 H          4.0959423675        4.8236614049       -0.2809799810
 O          6.5065758658       -1.9610791103        0.8230288118
 H          6.7494265098       -2.8668003891        0.5942661788
 H          5.8897273617       -2.0353902322        1.5797840007
 O         -4.3373808756       -4.2678489353       -1.7597300207
 H         -4.6332611541       -3.4230086163       -2.1681512867
 H         -5.1029207766       -4.8710424690       -1.8142901117
 O         -4.5249032243       -4.3911625264        0.8737406846
 H         -5.4956727981       -4.4225462426        0.9120470575
 H         -4.3120851496       -4.2047237249       -0.0685582734
 O         -5.4904569503       -2.1102341365       -2.7054733390
 H         -4.9657040119       -1.3091546235       -2.4359400972
 H         -6.1937802414       -2.0897138018       -2.0141767851
 O          3.8632683364       -5.6715392751        2.5913919047
 H          2.9039067777       -5.7932784183        2.3984538101
 H          3.8506474617       -5.1451755544        3.4078390303
 O         -6.4991826923       -2.0610713767        2.9867113842
 H         -5.9305215817       -1.6864815002        2.2727305696
 H         -6.3964116415       -3.0253697992        2.9777381345
 O         -1.9936219824        0.7003717450        6.1062510005
 H         -2.8105443737        1.1896139771        6.3198098837
 H         -1.5715946061        1.2477990110        5.4148055061
 O          1.4046034287       -2.3640481608       -4.2825835416
 H          0.9777238466       -1.4879187078       -4.4207523245
 H          0.7567941816       -3.0188795434       -4.5562498198
 O         -0.2637333635       -3.8639512885       -2.0440801808
 H         -0.7233543371       -4.5313256746       -1.5195784735
 H         -0.3511842892       -4.1437856285       -2.9857537148
 O          1.5982305332        1.6710736237        2.8407487327
 H          2.4056523887        1.1263435454        2.7385497164
 H          1.6836627627        2.1302764584        3.6987089118
 O          1.3168436407       -5.6947727762        1.9291579707
 H          1.1953740456       -6.3804037994        1.2313794337
 H          1.2741946768       -4.8444648240        1.4404574612
 O          5.1963647258        1.4440307778       -2.7107433662
 H          5.2089311938        1.2369902451       -3.6610216190
 H          5.0169943562        0.6194304228       -2.2200225898
 O          4.9670309592        4.5906561404       -3.9294247984
 H          4.3299023273        5.3213480649       -4.0925528110
 H          5.2952783769        4.7122712056       -3.0246888115
 O          6.1832826648        0.6892653416        0.1638583102
 H          6.0836416902       -0.2717127277        0.1207218058
 H          6.4029767038        0.8743240313        1.0976549078
 O          0.8192433387        4.4450808000       -4.8215716445
 H          0.4332179529        3.7197609592       -5.3418492738
 H          0.1047935753        4.7876954178       -4.2600164956
 O         -2.0679907230       -5.5959150727        3.4190862938
 H         -1.7444085080       -4.6786885264        3.2666939452
 H         -1.2972581824       -6.0312805017        3.8360776159
 O         -3.0525866814        4.7369375831        0.2577331000
 H         -3.1282255008        4.7833091374        1.2290428305
 H         -3.0801241683        5.6537666659       -0.0913919842
 O          5.5170924072       -5.9331720832       -1.5026139881
 H          4.8855319386       -5.3456133251       -1.0363135208
 H          5.2201958456       -6.8120106484       -1.2409325687
 O          2.0739684026       -5.1519903450       -1.7612208880
 H          1.2838185878       -4.5788009657       -1.6979372001
 H          1.9274504713       -5.6475115840       -2.6119684557
 O         -0.7137246451       -4.4293886220       -4.5952224713
 H         -1.5200801838       -4.9191076436       -4.3701896135
 H         -1.0019448080       -3.6557745293       -5.1262531263
 O          2.0378831851        6.3395800937       -1.5570727561
 H          2.7240943538        6.2813830128       -0.8769262708
 H          1.7839056078        5.4080250036       -1.7312245178
 O         -5.4728725582       -1.1957034868       -5.2918954224
 H         -5.3798686281       -1.6565345546       -4.4370918951
 H         -5.5934024528       -0.2564152766       -5.0395270419
 O         -3.6126876611        2.7191580240       -3.2921172227
 H         -3.7760886903        3.6683838017       -3.3757172047
 H         -3.5118951763        2.5367453608       -2.3306130449
 O         -3.0209278261       -0.2094803957       -5.9087397076
 H         -3.0609723329        0.7365411422       -6.1567801129
 H         -3.9271852871       -0.5602070980       -5.8986630048
 O          6.0763421312       -3.0579354094       -2.0206938119
 H          6.2131551238       -3.6019470714       -1.2382560085
 H          5.2476313971       -3.3805059112       -2.4572356453
 O          5.2515171404       -2.5371984705        3.1106255532
 H          5.7556088939       -1.9645099758        3.7238225956
 H          5.7651501321       -3.3728202497        3.0417457424
 O          4.1973561535        1.9037782286        5.1434548178
 H          4.3077629879        2.2681319551        4.2406804641
 H          5.0838021709        1.7681681311        5.5172970180
 O         -3.2757205052       -6.6948803373        1.2150108120
 H         -2.8177556214       -6.5662233301        2.0615872037
 H         -3.8012718763       -5.8691559368        1.1063734991
 O         -6.2955596683        1.9575413531       -1.4312501027
 H         -6.7270850853        1.5318163995       -0.6655309140
 H         -7.0552205683        2.2849006449       -1.9703961666
 O         -7.4578187401       -0.0759628428       -2.8945852066
 H         -8.0751499370       -0.0802009496       -2.1565811114
 H         -7.7230314312       -0.7980904820       -3.4909898803
 O         -2.4834526489       -1.7620403424        5.1642104594
 H         -2.1935327247       -2.4139336341        5.8116984305
 H         -2.2480208950       -0.8747962392        5.5166829972
 O         -7.7888300879        0.8532298583        0.5169225376
 H         -7.4653435078        1.0707457459        1.4155669756
 H         -8.1451086379       -0.0469712944        0.6223569370
 O         -5.3731012897        4.4128276505       -1.2088149436
 H         -5.6331087780        3.4610556704       -1.2533451388
 H         -4.7258676174        4.4984635899       -0.4895451100
 O         -2.7583922594        5.9941456704        2.7267657363
 H         -1.8486329866        6.0085865983        2.4003806548
 H         -2.7394998051        5.4963660155        3.5647134164
 O          2.8999249292        2.8695382663       -4.1467483337
 H          2.1765952230        3.4940443081       -4.3421400925
 H          3.7199260245        3.4042171138       -4.1245473393
 O          8.5107913928        2.0343943140        1.1490479919
 H          8.9096339441        2.3322725243        1.9971081126
 H          8.4882967783        1.0500764791        1.2142816763
 O          8.0170841821       -0.3774993871       -1.4562999237
 H          8.8060197901       -0.0730690026       -1.9471047865
 H          7.6205881815        0.3519028195       -0.9553610018
 O         -4.0455514045       -4.4776465032        4.7745836132
 H         -3.6613419765       -4.2293317201        5.6183272475
 H         -3.3694816262       -5.0307741413        4.3203066430
 O         -2.4802997283       -5.7567021710       -2.9417094662
 H         -2.9583345515       -6.5907797031       -2.9689566498
 H         -3.1343111547       -5.1108141332       -2.5864855320
 O          4.2502408506        2.9699984899        2.6254303646
 H          5.0783342606        3.3108459667        2.2519362004
 H          3.9139556777        2.3935551405        1.8994012313
 O          8.6650109738       -0.5586205045        1.4084489129
 H          9.3611396896       -0.7269686871        0.7427557620
 H          7.8895065285       -1.1237420433        1.1944795773
 O          3.0250329786        4.9455030928        3.9737536217
 H          2.7295348858        5.6812460775        3.3930740708
 H          3.3848893374        4.2551757756        3.3813388563
 O          9.5899388739        3.1003876350       -0.9388120069
 H          9.1849354039        2.6287176030       -0.1627322672
 H          8.9736718490        2.9066899145       -1.6720097260
 O          7.6054539705        2.5093287093       -2.6262885846
 H          7.5550955345        2.7853393061       -3.5695189351
 H          6.7798237763        1.9882119259       -2.4997276663
 O         -6.2308687910        4.1443261336        1.5682879776
 H         -7.1891290750        4.2489467487        1.3666723137
 H         -5.8251478042        5.0124476863        1.3706365485
 O          6.6409116645       -0.6785622816       -3.6867878124
 H          7.0439164468       -0.5494459043       -2.8005770049
 H          7.0091783790       -1.5160859186       -4.0014845804
 O          0.9612691867       -3.3949490961        5.1293534008
 H          0.9470308938       -2.5213426459        5.5656924028
 H          1.9088691623       -3.5790193918        4.9472520854
 O         -7.1660235870       -4.4074316322        0.5436903319
 H         -8.0693050484       -4.4770562988        0.9009145219
 H         -7.1688968944       -3.5410892571        0.0651765308
 O         -4.1193344502        2.3747934040        6.0996293085
 H         -4.3117720882        2.0171458539        5.2050354468
 H         -3.7929134583        3.2709107952        5.9489754984
 O         -6.3762104164       -4.7449085092        3.4506748671
 H         -5.6004068181       -4.7204686088        4.0402675741
 H         -6.2551894048       -5.4835110297        2.8528715365
 O          3.5255984782       -3.8077486039        4.6038692506
 H          4.0065787979       -3.6628549632        5.4364460469
 H          4.0085176734       -3.2225846717        3.9721624310
 O         -8.6692874502       -1.4358671770        1.5902203135
 H         -9.2366503562       -0.8559645524        2.1262308099
 H         -7.9059328221       -1.6750920210        2.1666162311
 O          3.4050330815       -0.6446421079        5.2432599467
 H          3.6442933160        0.2878453477        5.4073537096
 H          2.4708692539       -0.7457503866        5.5441020591
 O          6.9540431457       -1.0137973525        4.4868086265
 H          7.6844042357       -1.6058417342        4.2126484343
 H          6.8730754925       -0.3256149090        3.7779389687
 O          8.8336237132       -2.8832224202       -0.8834433144
 H          8.3985209933       -2.0119785804       -0.9543073424
 H          9.3138263749       -2.9675225713       -1.7322877152
 O          1.7557010456        2.9589656773        5.2433510571
 H          2.0042147778        3.8493282517        4.9235927578
 H          2.6058668746        2.5593103181        5.4935173608
 O         -2.6026042892        4.5577310352        5.0769471556
 H         -1.9957768775        3.8144034608        4.8437686074
 H         -2.0338470354        5.1865060680        5.5244436968
 O         -0.5846175991        6.4838122376       -0.9604368207
 H         -0.8086087873        5.8870255312       -1.7078625769
 H          0.3392090292        6.7347999176       -1.1378586698
 O         -7.1764834234       -2.0886593917       -0.7105137700
 H         -8.0485401442       -1.6707104989       -0.7832711920
 H         -6.6183820736       -1.5385687178       -0.1038832642
 O         -5.1597873348       -1.2535209887        5.1732517868
 H         -5.6499756682       -1.6405165224        4.4168258989
 H         -4.2504145825       -1.6060649749        5.1494301261
 O         -8.1430829222       -1.6438133147       -5.0395026476
 H         -8.6431270987       -0.8612995279       -5.3261824271
 H         -7.2546596379       -1.5499638531       -5.4303302204
 O         -2.7853707616        2.4520729144       -5.8876318371
 H         -2.9270146304        2.4760538393       -4.9271464249
 H         -1.8177566830        2.4464848726       -6.0048971669
 O         -5.5600955528        4.2568076428        4.1389471908
 H         -5.8532800424        4.2090833303        3.1963800625
 H         -5.4121918033        5.1800562653        4.3390016804
 O          5.3973462115        0.9922514954       -5.5061414116
 H          5.6866219994        0.0845152249       -5.6646066719
 H          4.4846548475        1.0402597779       -5.8482550768
 O         -1.2682003608        4.9894277651       -3.0951473948
 H         -1.2395520099        4.0131974162       -2.9964984147
 H         -2.1941266580        5.2407283077       -3.2368014368
 O         -1.3875382855       -6.0383675597       -0.5135815788
 H         -2.0506966661       -6.4298413364        0.1001155190
 H         -1.7881708689       -6.1071852977       -1.4059699112
 O         -7.1006048926        0.9716737306        3.0724795050
 H         -7.3631926953        1.6976509131        3.6800475359
 H         -7.4120298871        0.1606634295        3.5078153174
 O         10.0066825739        0.0104500123       -3.1658797475
 H          9.5628755881        0.3440857791       -3.9812348993
 H         10.7706315479        0.5655584176       -2.9807872789
 O         -9.5953121241       -0.8161653736       -1.2295026198
 H        -10.1998334124       -0.7496265384       -0.4619740115
 H         -9.9597535316       -0.1556758102       -1.8700699617
 O          6.2762647175        3.4959926996        0.9436523308
 H          6.1649438332        3.7310167853        0.0024162711
 H          7.0772901368        2.9427702401        1.0045547537
 O         -5.6031599945        1.2658793216       -4.2765678881
 H         -6.1435021021        0.9427319625       -3.5330019544
 H         -4.8504605029        1.7709671298       -3.8994160974
 O          9.5434266492        2.6525947405        3.4893936185
 H          9.7116914137        1.7536923900        3.8135166378
 H          8.6844067187        2.9226126646        3.8739304072
 O         -6.4230285715        0.8382492883        6.4924203008
 H         -6.0335245161        0.0265134464        6.1313925634
 H         -5.6661215659        1.4122299554        6.6793999465
 O         -9.7322120479        2.4601622527       -0.3083229417
 H         -9.0659653591        1.7982164721       -0.0291242233
 H        -10.5258592680        2.3166700127        0.2277712592
 O         -9.6466355673        3.1184558281        3.1603832301
 H         -9.0469841026        3.1428523777        3.9222828183
 H         -9.2885468600        3.7321613138        2.5004646317
 O         -8.7526970702        4.5136945605        0.9513279980
 H         -9.1275265004        3.7613163832        0.4145729084
 H         -8.6470718801        5.2244925423        0.3084412670
 O        -11.3720908838       -0.4494629187        0.7447677162
 H        -11.7107406781       -1.2603471662        1.1746993804
 H        -10.9666240589        0.0534795057        1.4684242239
 O          6.9644823084        3.1751060007       -5.1065542832
 H          6.3430426922        3.8778484487       -4.8483701745
 H          6.3859694390        2.4452776557       -5.3923888055
 O         -9.7035137337       -3.8055151767        1.0751776089
 H         -9.8663924293       -3.8853068222        0.1163763240
 H         -9.3523150819       -2.8857337977        1.1856761245
 O          0.8839998474       -0.8606855159        5.9213075978
 H          0.7482361927       -0.1500859182        6.5888233380
 H          0.3669488618       -0.5791388295        5.1355374710
 O        -10.0852499989        0.4522006552        2.9861174883
 H         -9.8729691856        1.4060988468        3.0015798930
 H         -9.7082630135        0.0860214637        3.8008130096
 O         -5.0376680544        6.5425174902        1.3004035083
 H         -4.2882158867        6.4952981153        1.9182297616
 H         -4.6982160243        6.9949370621        0.5211739492
 O         -8.4379603874       -0.8870736112        4.6540896564
 H         -8.5391351546       -1.8397958822        4.4638045581
 H         -8.0704529991       -0.7985312293        5.5347060267
 O          6.1723120149        6.0046334063        1.6549680893
 H          6.3587689851        5.0510328749        1.4646739325
 H          6.8527436739        6.4894948245        1.1866187279
 O          8.6091735982        5.4374137137        0.0711976233
 H          9.2039701204        5.7209138778        0.7642792321
 H          9.0390950288        4.6718884078       -0.3585448927
 O          6.6266291277       -4.7994638616        2.8020261509
 H          5.9464682318       -5.4752578166        2.8790793547
 H          6.9042923235       -4.8098764700        1.8649874591
 O         -7.6184288139        2.7322226992        4.9685805150
 H         -7.3381051102        2.0798131047        5.6411170089
 H         -6.8627792944        3.3394908267        4.8519407852
 O         -0.0751682547        2.1012756836       -5.9821127218
 H          0.1276267813        1.3682016783       -5.3501857193
 H          0.2496383838        1.8005756153       -6.8316172980
 O          2.9184002898        6.2537821152       -4.1636190658
 H          2.6196164250        6.4804258428       -3.2660768815
 H          2.1886976631        5.7719237891       -4.5736095748
 O          2.7566829581        0.7317787041       -5.7898323788
 H          2.6530143984        1.5422037138       -5.2537044378
 H          2.9764065751        0.0192712835       -5.1625623177
 O         10.8726264846       -0.6564913210       -0.1257750063
 H         11.3799881857       -0.3681860948        0.6751660536
 H         11.0630409781        0.0329289539       -0.7863199785
 O          6.4355176372        4.6424934745       -1.5034007972
 H          6.9242741597        3.9078783960       -1.9352418969
 H          7.0997302349        5.2568575700       -1.1767849729
 O          0.0708053102        5.2736416149        4.3892271699
 H          0.8220052934        5.8261782725        4.6073406222
 H         -0.0602315109        5.3646796176        3.4371517241
 O          7.1416265491       -4.6176583058        0.1674400073
 H          7.9455962103       -4.2537305952       -0.2479465070
 H          6.7744291561       -5.3129474316       -0.4116979330
 O          8.4705564411        0.7145728703       -5.1733200670
 H          8.2624080585        1.6351951906       -5.3557825358
 H          7.6844195301        0.3338606846       -4.7336716276
 O          1.0580819747       -0.9110909065       -7.1786884004
 H          1.5550127287       -0.2197114429       -6.7078398097
 H          1.6963038990       -1.6266547064       -7.2948777935
 O         11.9699134199        0.2609179848        2.0553909194
 H         11.3392871615        0.1498097844        2.7883337331
 H         11.9942750991        1.2161461609        1.8715936988
 O          9.8239783436       -0.1016877290        3.7531789000
 H          9.3160937378       -0.3270608059        2.9402353712
 H          9.8546102001       -0.9073415283        4.2717229652
 O         -3.4596687694       -3.4779849413       -4.7414391737
 H         -3.7675155151       -2.9396556621       -5.4710999924
 H         -4.0998037889       -4.2060382616       -4.6344909446
 O          1.1011581887       -7.1544757741       -0.2305150009
 H          1.5391415978       -6.5181460155       -0.8330558540
 H          0.1509023131       -7.0216189288       -0.3843633006
 O         -6.6287879910       -5.7387251062       -1.6828183901
 H         -6.9070474071       -5.3771614031       -0.8116478638
 H         -7.2595120754       -5.3891191587       -2.3205128014
 O          6.5426015087        1.0344289050        6.1932170798
 H          6.7835082416        0.2640370175        5.6376850620
 H          6.3252846981        0.6828009393        7.0553557889
 O          8.6344661781       -2.8611243251        3.5783807548
 H          8.1060560030       -3.6659190826        3.5550056428
 H          9.2376326119       -2.9319175327        2.8086563737
 O          7.0103009720        3.0250337840        4.2842645786
 H          6.9869875036        2.6558114189        5.1735365575
 H          6.5398260457        3.9000996438        4.3141343596
 O          5.7307231615        5.3002777111        4.2952730114
 H          5.9026455530        5.7384359441        3.4470770675
 H          4.7608483950        5.2473898208        4.3745096877
 O         -9.6326405146       -3.5414633739       -1.6173323072
 H         -9.7779729270       -2.5800495171       -1.6380389320
 H         -8.9814192424       -3.7291022081       -2.3054615393
 O         -3.9468575156        5.5408891391       -3.1411691649
 H         -4.5936466763        5.1890537081       -2.4914213073
 H         -4.3268347111        5.4270214205       -4.0341017852
 O          5.1298612606       -2.4351522366        6.3128683183
 H          5.9789791164       -2.1797546953        5.9422946669
 H          4.5036212556       -1.7377064064        6.0381091739
 O          7.5235544793       -3.2335815788       -4.2110042729
 H          8.4816537124       -3.1837013645       -4.0669701042
 H          7.1146601273       -3.2373767908       -3.3128989250
 O          3.8252824878       -3.6422545227       -3.1662607712
 H          3.7541404429       -4.1812148921       -3.9853981191
 H          3.2477746394       -4.0986551108       -2.5270423974
 O         10.2382034130       -3.0903466736        1.4240030075
 H         10.9277370192       -2.4235668399        1.4271275273
 H          9.7533072295       -2.9944619850        0.5775133496
 O         -8.9468846421        0.9822022948       -5.0398695836
 H         -8.3437710434        0.9190275844       -4.2801936518
 H         -9.8087752019        1.1026650513       -4.6212613174
 O         10.0353800487       -2.7019064746       -3.2708140006
 H         10.8772842865       -2.9416931316       -2.8460176352
 H         10.0584189383       -1.7257211053       -3.3278242144
 O         -8.2875167323        3.0828940265       -2.7246294364
 H         -8.3556503031        3.9283867661       -2.2546793183
 H         -7.9728947486        3.2758401358       -3.6304856494
 O          1.4297096498       -6.1538225244       -4.0625883289
 H          2.1731484060       -5.9342545070       -4.6486009667
 H          0.6623558629       -5.6803029177       -4.4126270761
 O         -8.8744691150       -3.4997324220        3.9129735454
 H         -9.2790323384       -3.7642045120        3.0801095531
 H         -8.0458417286       -3.9954380795        3.9634241152
 O         -7.5522537130       -3.8382116056       -3.5859070031
 H         -6.8222955412       -3.2648291126       -3.3030605481
 H         -8.0199808622       -3.3139849818       -4.2535232420
 O          3.5417283869       -5.0832914966       -5.3607316552
 H          4.4684575601       -5.3663542338       -5.2531074309
 H          3.4859272992       -4.3367823497       -5.9895182371
 O         -7.1931988356        3.1633563525       -5.1906270922
 H         -6.5646304660        2.4466975146       -4.9352682918
 H         -7.9161199491        2.6974680367       -5.6271058112
 O         -3.2284633618        7.1135279043       -0.9200885978
 H         -3.4686662156        6.8379503185       -1.8168096630
 H         -2.2682336451        7.2581680732       -0.9320899233
 O          2.1479556933        6.7759541885        2.2619430622
 H          2.7118943919        6.5642235139        1.5090829226
 H          1.2411022745        6.5305011788        1.9999895937
 O         11.6422739676        1.5214430445       -1.5786963447
 H         12.4455580309        1.8256768084       -1.1559845559
 H         10.9442715671        2.1851236658       -1.3813255986
 O         -4.7581187489        4.5350418917       -5.4544911639
 H         -4.1607061203        3.8903899203       -5.8576015200
 H         -5.6534715756        4.1749342047       -5.5187007164
 O        -10.4267958075        1.1745716569       -2.7541091681
 H         -9.8557118752        1.9054652382       -2.4608992679
 H        -11.2763755697        1.2995413972       -2.2839067852
 O          3.1468791543       -2.6511305344       -6.3974236955
 H          4.0041338730       -2.2271923128       -6.2443433265
 H          2.6034647861       -2.4843386413       -5.6008463326
 O          5.8311002361       -1.8629343533       -6.0540293377
 H          6.3358173441       -2.4995719933       -5.5236068886
 H          6.2955499470       -1.7760780338       -6.8847408222
 O         -1.4977812816       -4.1710795556        6.2050552747
 H         -1.4880797143       -5.1157736093        6.0389391512
 H         -0.5932980393       -3.8771740484        6.0219806023
 O         -5.3552191082       -5.3615221311       -4.3889585207
 H         -6.2286866519       -4.9570001111       -4.2699095507
 H         -5.2984857040       -6.0935448119       -3.7716928937
 O         -4.2732175883       -7.2607495127       -1.4907841669
 H         -3.9954331142       -7.3609745286       -0.5743216554
 H         -5.1975825768       -6.9888038804       -1.4625571383
 O          0.3248206081       -6.1082999608        4.4301500925
 H          0.7258409595       -6.0989702843        3.5428468437
 H          0.6574953606       -5.3111957926        4.8576126528
 O        -11.8066676751        2.4253726886        1.5219008589
 H        -11.2587648573        2.8574734431        2.1917460651
 H        -12.2826263982        1.7225115912        1.9681763208
 O          3.9660050476       -7.3965209897        0.2391061051
 H          4.0483869164       -7.1500908592        1.1648083698
 H          3.0461323153       -7.6409123387        0.0964073546
 O        -11.7848577399       -2.5815293710        2.2851596869
 H        -11.3991722974       -2.4296859225        3.1503032165
 H        -11.2137357573       -3.2341576153        1.8392192472
 O          0.4328891888        1.3439840275        7.2876526089
 H         -0.5211778014        1.2652992546        7.1237709940
 H          0.7633784280        2.0424880125        6.7082465084
 O          5.9439779383       -5.5478810740       -4.2980907027
 H          6.6202022926       -4.8599874548       -4.3584067504
 H          5.8132987173       -5.7399779917       -3.3567944215
 O         11.8376177834       -2.9234358746       -1.2886766030
 H         11.7235327779       -3.5890768405       -0.6083823862
 H         11.5416560650       -2.0779373879       -0.8953564105
 O        -12.5116688685        1.2879056337       -1.0690212326
 H        -12.5623517555        2.0755476400       -0.5215051957
 H        -12.2488344698        0.5702701492       -0.4679163489
 O         11.4918478727        2.9073977377        1.4692778887
 H         10.9376842917        3.0458865292        2.2502032962
 H         10.9692928024        3.1644615638        0.7048509012
 O         -7.7931203332        5.4978640944       -1.4287618400
 H         -6.8851184833        5.1645090311       -1.2560441633
 H         -7.6972342658        6.2730154496       -1.9791680974
