  116

 H          0.4630927076        1.1941025328        0.8323452958
 C          0.5529035761        0.5095402430       -0.0251092077
 H          0.4633421182        1.0989800596       -0.9466436098
 C         -0.5779259333       -0.5149488604        0.0205351874
 H         -0.4518492549       -1.1270258237        0.9278134321
 H         -0.4840892691       -1.1748678656       -0.8448928486
 N         -1.8603253885        0.1647702475       -0.0623309409
 H         -2.6131021662       -0.5138473280       -0.0751527666
 H         -1.9956541839        0.7570092262        0.7508171931
 O          1.7808081027       -0.1833448059        0.0209869107
 H          2.5006908393        0.4507195084       -0.0567171281
 O         -2.6717415802       -0.7025732714       -3.0743102689
 H         -1.9261942815       -0.1007019655       -2.9311008415
 H         -2.4374654979       -1.5463376535       -2.6601146960
 O          1.7033774481       -2.4464051583       -1.5105711770
 H          1.7430942481       -1.7385553485       -0.8418181244
 H          1.4182056187       -1.9757129337       -2.3133524505
 O          4.1701445975        0.8383343487        0.4209117861
 H          4.6457714269        1.3264332275       -0.2744576416
 H          4.8248460654        0.2160964513        0.7964380136
 O          4.0877186300       -2.2424158203        1.5777724940
 H          4.9331104436       -1.8329860421        1.8150871567
 H          3.4071693193       -1.7412034353        2.0585047626
 O         -4.7070857370        0.1791654548       -1.6752251616
 H         -4.0441743630       -0.1791685901       -2.3136196299
 H         -4.3212066490        1.0177031542       -1.3671783395
 O         -2.2285173172       -3.0813718530       -1.6634001753
 H         -1.5879699545       -3.3853843882       -1.0010926401
 H         -3.0535359453       -2.9198532940       -1.1810685086
 O          1.8657886317       -0.8802120928        2.6338958817
 H          1.7395024859       -0.7274852658        1.6741896085
 H          2.2668197358       -0.0435641482        2.9504960112
 O         -4.2332719285       -1.9804400536       -0.0976477584
 H         -4.4626353200       -1.2176478892       -0.6728366106
 H         -5.0326914267       -2.1187037903        0.4325072296
 O         -0.1884932807       -3.6810409519        0.1332502650
 H          0.3446507898       -3.8786878287        0.9247853589
 H          0.4701168144       -3.3741519635       -0.5146760025
 O          3.0491756760        1.5264275592        2.7789496099
 H          3.5106909032        1.3057004850        1.9433715928
 H          2.5441764890        2.3169238540        2.5451430530
 O          0.9931361565       -0.6118761968       -3.4830563674
 H          0.4864897775       -1.3215584556       -3.9088955891
 H          0.3710260283        0.1373989240       -3.3959991853
 O         -0.8026575448       -0.5042068763        3.3522369648
 H          0.1350215257       -0.7320776106        3.2242654940
 H         -1.3279460763       -1.2094705740        2.9429401530
 O         -3.1847234366        2.3826095079       -0.9233702914
 H         -3.4609376594        2.3057899979        0.0118150387
 H         -2.4494163509        1.7446875787       -1.0122935488
 O         -1.2161708595        2.0453741462        2.8096259000
 H         -1.0890870361        1.0780559264        2.9950053589
 H         -1.0043736582        2.4902772229        3.6306878761
 O         -3.7384249821        1.9947045020        1.7061131931
 H         -2.9577664545        2.2235611948        2.2346849454
 H         -4.0154873638        1.1143399742        2.0577316444
 O          2.8260134553        2.7247767674       -1.5132826919
 H          3.5392845453        3.2711285988       -1.8473859331
 H          2.9681456765        1.8245106524       -1.8976101067
 O          3.4071993840        0.3653891914       -2.5637767362
 H          2.6176133263        0.0269947458       -3.0192398549
 H          3.7066829328       -0.3529523750       -1.9728652213
 O          2.0705554443        3.4384856080        1.0326799526
 H          2.2876772940        3.1206842137        0.1393773462
 H          1.1791474208        3.7961021963        0.9717767468
 O         -0.8521099433        3.6007217974        0.5212168081
 H         -0.9457371234        3.0542643274        1.3187170742
 H         -1.7095691761        3.5740392027        0.0792651454
 O         -0.8095187181        1.3895808912       -3.0994025628
 H         -0.3891950452        2.2050549839       -2.7482067463
 H         -1.5572963562        1.7278982071       -3.6251333822
 O          0.2898689027        3.5787735267       -2.0423579514
 H          1.2304141367        3.3675620838       -1.9284489075
 H         -0.0729578951        3.7065135770       -1.1548873762
 O          4.3187326291       -1.7891759311       -1.0775312279
 H          3.6116417931       -2.3382264227       -1.4508507883
 H          4.2362717190       -1.9306710926       -0.1075827060
 O         -6.4321715656       -1.4968263117        1.4186354422
 H         -7.2195832225       -1.8109536012        1.8598930857
 H         -6.7339441044       -0.7799724488        0.7897410076
 O         -2.2752715513       -2.4242361222        1.8409343928
 H         -2.9647859101       -2.3146570645        1.1628651470
 H         -1.6293192284       -3.0252990592        1.4478776417
 O          6.7766723573       -0.5633732163       -1.1392904089
 H          5.9250220525       -1.0415885955       -1.1615475073
 H          7.4000663717       -1.1038505125       -1.6238020709
 O          6.1807564471       -0.4934856130        1.6376911964
 H          6.8173961826       -0.4326622752        0.9171647577
 H          6.2535119239        0.3323977399        2.1749349975
 O          1.5894572305       -3.6976024892        2.1987753831
 H          2.4950912658       -3.7619199185        1.8788170024
 H          1.5342152697       -2.8392527926        2.6363807416
 O          5.9031892311        1.8389484571        2.8491046153
 H          5.0421907653        1.7484263433        3.2770272940
 H          5.7743667561        2.5359885209        2.1779858062
 O          5.6111478775        1.8782281562       -1.6438483717
 H          6.2985162087        1.2125999809       -1.4779208334
 H          5.0553927837        1.4841951647       -2.3301797456
 O         -3.2811702292        2.2668946218       -3.7989332625
 H         -3.3959444195        2.5603487969       -2.8858227061
 H         -3.7673258317        1.4434134479       -3.8928684301
 O         -4.3044121576       -0.3814455085        2.7142905655
 H         -5.1023626369       -0.7876083985        2.3285498797
 H         -3.6211385714       -1.0585947107        2.7098954467
 O         -7.0872888882        0.3658988000       -0.2856316875
 H         -6.4155240852        0.2502832752       -0.9747303519
 H         -6.9129730658        1.2479370480        0.0949812532
 O         -6.1370047972        2.7738829817        0.5972772338
 H         -5.8059850346        3.3052796842       -0.1292132002
 H         -5.3736921785        2.5763918386        1.1637770902
 O          5.0854938901        3.6024111055        0.9000753766
 H          5.2776438346        3.3002261779        0.0070168297
 H          4.1266929843        3.6707362798        0.9899229588
 O         -0.2997444474       -3.0243613391       -3.7015642147
 H          0.3118467242       -3.6600485981       -3.3250002178
 H         -1.1135123069       -3.1072341995       -3.1844476831
