  91

 H         -0.0000000000       -0.0000000000        0.0000000000
 O          0.4666652574       -0.9264109442        0.1560697199
 H          1.4556256011       -0.8662795593       -0.1063474645
 H          0.4101146442       -1.1071597501        1.1623460964
 O         -0.7284733315        1.2358326156       -0.0827417655
 H         -0.0802932534        1.9486714909       -0.2366993308
 H         -1.4043264451        1.2364663815       -0.7938192419
 O          2.7032624349       -0.5575490681        2.9885992860
 H          2.3879879923       -1.4081038582        2.6401266284
 H          2.0471341977       -0.2857999639        3.6524542072
 O         -1.7977443891        0.6931748756        2.9462538314
 H         -2.0188355425        0.8528823489        3.8649458271
 H         -1.1055124937        1.3801656827        2.7032582578
 O          0.5570507620        1.7417621748       -2.7101024661
 H          0.2558706368        0.8407259756       -2.5014159463
 H         -0.1369450004        2.3802185616       -2.4333177976
 O          1.8273772398        1.1637019534        1.1418221958
 H          2.1937780582        0.5563280378        1.8220176551
 H          2.5700726982        1.6874269909        0.8107751371
 O         -0.0082683112        2.5075705765        2.4363805903
 H         -0.4558692105        3.1393035064        1.8574989222
 H          0.6831936668        2.0642327443        1.8723498509
 O         -3.3800413427        2.1772039183        1.1103748265
 H         -2.9374445817        1.5744140829        1.7267348673
 H         -3.9184426555        1.6304569100        0.5282732947
 O          2.8525626378       -0.9175407897       -0.7239109560
 H          2.9811344886       -0.1229338409       -1.2893145659
 H          3.5633482438       -0.8664946663       -0.0304725320
 O         -2.5928344825        1.0950152877       -1.9812846294
 H         -3.3410733286        0.7249024850       -1.4757016119
 H         -2.4817138500        0.5330712649       -2.7752193144
 O          0.0693354332       -0.9966133811       -2.6156380238
 H          0.7157417911       -1.7265658349       -2.5439975946
 H         -0.5852038497       -1.2054712473       -1.9140276055
 O          3.1512531758        1.2384982058       -2.2812014071
 H          3.2381868544        0.7685016553       -3.1270410058
 H          2.2466257173        1.6061160872       -2.3173065869
 O         -1.6105118849        4.0724597407        0.6004551754
 H         -2.0317566481        4.8690400502        0.9249346299
 H         -2.2743149218        3.3483063733        0.7318754788
 O         -1.4074978619        3.4871661829       -2.1456248498
 H         -2.1108498296        2.8229254654       -2.2290602104
 H         -1.5025821353        3.8448231624       -1.2493664048
 O         -1.7895508133       -1.8730917888       -0.9454935375
 H         -2.1120950649       -1.5709986487       -0.0738814315
 H         -2.5799303503       -1.9362985140       -1.5144931968
 O          0.0690715589       -3.7356788596       -0.2081655987
 H         -0.5895231223       -3.0785083365       -0.5085415583
 H          0.6935722076       -3.8036758564       -0.9423272049
 O         -2.8696098611       -1.3520142740        1.4452688488
 H         -2.5823609204       -2.1920645976        1.8326117784
 H         -2.4959195748       -0.6418865054        1.9922802273
 O         -1.3765969810       -3.5990226733        2.1709757415
 H         -1.4543416544       -4.4062056559        2.6801184985
 H         -0.8775588024       -3.8205605332        1.3662392840
 O          0.0732555176       -1.3272585764        2.6296638285
 H         -0.4010219271       -2.1709204346        2.6848525247
 H         -0.5062325059       -0.6195026356        2.9530139887
 O         -4.4650742600       -0.0540523216       -0.4131475188
 H         -4.0794307226       -0.5945738850        0.2950375695
 H         -4.8203643776       -0.6701311672       -1.0623052799
 O          0.9691751451        3.4230268477       -0.3838327810
 H          0.3175736965        4.0319381168       -0.0203530915
 H          1.1916146131        3.7378463907       -1.2617455125
 O          1.9188458845       -2.9334515090       -2.1803120951
 H          2.4104397157       -2.2940268143       -1.6165550455
 H          2.4972389120       -3.1603936426       -2.9091172518
 O          2.1158092755       -2.8374098982        1.4657412422
 H          2.9194028841       -3.3080882749        1.2472435459
 H          1.4038607629       -3.2052552745        0.9141984446
 O          2.2314249515       -0.2013248083       -4.4020571078
 H          1.4204190255       -0.4332344636       -3.9339066658
 H          1.9579610893        0.2574911860       -5.1971089213
 O          0.8389217632        0.8464269316        4.5255043088
 H          1.3288457025        1.2064585994        5.2641122991
 H          0.6540732033        1.5843704981        3.9269345348
 O          4.1884698233        2.1378769492        0.0878590366
 H          3.9725379024        1.8878285668       -0.8275469945
 H          4.5301462413        3.0310851613        0.0610312601
 O         -2.0993322966       -0.4568101259       -4.1457642828
 H         -1.2884954110       -0.8555389207       -3.7806089040
 H         -1.7722492838        0.2658623985       -4.7195217010
 O         -0.7649888927        1.6760758435       -5.0508084826
 H         -0.0994964119        1.7336836604       -4.3363223638
 H         -1.2924260436        2.4709137035       -4.9614091836
 O         -3.8927164213       -1.8188973067       -2.6209656041
 H         -4.0652034876       -2.6950543549       -2.9641466144
 H         -3.4532344758       -1.3243698946       -3.3364026447
 O          4.6889834303       -0.4581743659        1.0712680974
 H          4.2478577122       -0.5207163435        1.9306213382
 H          4.7964639417        0.4853025830        0.8853416776
