18

H -1.727332000 -0.735695000 -1.294180000
C -1.864697000 -0.424538000 -0.248445000
H -2.936488000 -0.463061000 -0.030543000
C -1.388144000 1.023374000 -0.098243000
H -1.619567000 1.371317000 0.920185000
H -1.965994000 1.640631000 -0.794588000
N 0.036635000 1.187508000 -0.423236000
H 0.208077000 2.120350000 -0.773147000
C 0.983636000 0.857929000 0.657830000
H 0.432674000 0.382341000 1.470871000
H 1.471755000 1.752043000 1.066315000
C 2.039699000 -0.121511000 0.129530000
H 2.586187000 -0.590278000 0.950270000
H 2.765235000 0.401614000 -0.508141000
O 1.408235000 -1.167639000 -0.609641000
H 0.877078000 -0.688771000 -1.265401000
O -1.236182000 -1.331744000 0.643936000
H -0.347448000 -1.519507000 0.302618000
