  86

 H          0.4630927076        1.1941025328        0.8323452958
 C          0.5529035760        0.5095402430       -0.0251092076
 H          0.4633421182        1.0989800596       -0.9466436098
 C         -0.5779259333       -0.5149488604        0.0205351875
 H         -0.4518492549       -1.1270258237        0.9278134320
 H         -0.4840892691       -1.1748678656       -0.8448928489
 N         -1.8603253885        0.1647702475       -0.0623309408
 H         -2.6131021662       -0.5138473280       -0.0751527666
 H         -1.9956541840        0.7570092263        0.7508171933
 O          1.7808081026       -0.1833448059        0.0209869107
 H          2.5006908393        0.4507195084       -0.0567171281
 O         -0.4624049345        3.4826796632       -1.2296820689
 H         -0.9779247476        3.6885818903       -0.4233714327
 H         -1.0788107473        2.9323614266       -1.7446200849
 O          1.7701226725        3.5963709677        0.6252729050
 H          1.1150145122        3.6653716712       -0.0819719063
 H          1.2733385135        3.3250456781        1.4132232671
 O          3.6449353632        1.6876169768        0.4132801958
 H          3.0958652791        2.5018418358        0.4187464122
 H          4.4555500784        1.8613944148        0.9264211526
 O          2.6995146718        0.7496370811        2.8994344599
 H          3.0440160265        0.9832966405        2.0150959092
 H          2.4971040932       -0.1926356840        2.8710128833
 O          0.6389195891        2.4139199645        2.9469085606
 H          1.3858113178        1.7702713236        3.0203052906
 H          0.7249627096        3.0223388356        3.6811614786
 O         -2.2915124110        1.6513299673       -2.1749644153
 H         -2.3809149362        1.0012363244       -2.8827886318
 H         -2.0411397890        1.0812237070       -1.3786658475
 O          2.3407429882       -1.5983985002       -2.2321305938
 H          3.2970715929       -1.4811836243       -2.2014890740
 H          2.0235817714       -1.1513458564       -1.4219091607
 O          0.5273674719       -0.0991194125       -3.6840151269
 H          1.1802472148       -0.7255222952       -3.3315211789
 H          0.8261010423        0.7743820135       -3.3808966045
 O          4.6418697373       -0.8307996448       -0.7505554691
 H          4.8999733679       -0.9732495857        0.1760808434
 H          4.5466152255        0.1230439798       -0.8322598598
 O          5.0245875189       -1.3226276228        1.9681254559
 H          4.0772215252       -1.5352823227        2.1094466849
 H          5.4981902560       -2.1493316213        2.0705162141
 O          2.3652161804       -1.9750449882        1.9382010774
 H          2.7630427620       -2.7131816776        1.4046657855
 H          2.0273228871       -1.3645816931        1.2508381450
 O          3.5992999550       -3.5602264117        0.2626868181
 H          2.8999724834       -3.9432263468       -0.3200876453
 H          4.0733297761       -2.9327845854       -0.2936878557
 O          1.6412144778       -4.1344911423       -1.4325783117
 H          0.7519375641       -4.0448362992       -1.0479628123
 H          1.7992457298       -3.3152268424       -1.9320914768
 O          1.5682711731        2.2879524381       -2.6609174394
 H          0.9170552519        2.8241944866       -2.1769589902
 H          2.0597893605        2.8905165368       -3.2188709901
 O         -1.9197006138        1.3693294474        2.6687647741
 H         -1.8897442455        0.4183191546        2.8874251482
 H         -1.0255793170        1.7088723132        2.8397206166
 O         -2.1707608234        3.6503944497        0.8734668773
 H         -2.0917065549        2.9826017613        1.5640721095
 H         -2.9821294475        3.4322019433        0.3864120595
 O         -4.2443906323        2.6486588296       -0.6927564658
 H         -3.5837252783        2.2843084260       -1.3334752926
 H         -4.9023491417        3.1176619349       -1.2052452562
 O         -4.5481324217        0.8639699363        1.4385513155
 H         -3.8606669124        1.2011642753        2.0238850929
 H         -4.5545298187        1.4497828237        0.6655071442
 O         -3.9781155232       -1.8101890457        1.4529253683
 H         -3.7944904088       -2.0943834151        0.5416579308
 H         -4.3712841388       -0.9178751302        1.3992156253
 O         -1.9767758768       -1.3685153650        3.0676721819
 H         -2.7128750348       -1.5796699986        2.4209179049
 H         -2.3281781080       -1.6028059986        3.9277222011
 O         -0.8305092941       -3.8691987377       -0.2063695855
 H         -1.1831528116       -4.7583831682       -0.1499160210
 H         -0.5656291995       -3.6301275262        0.7184719188
 O         -0.1055676354       -3.2426105426        2.2670753617
 H          0.7815524946       -2.8458585142        2.3013876337
 H         -0.7277670409       -2.5820659914        2.6212165895
 O         -3.0071977013       -2.3483316788       -1.1024185970
 H         -2.2358029030       -2.8900876147       -0.8646998764
 H         -2.7413163150       -1.8377395482       -1.8832744198
 O         -1.9985843450       -0.8748960888       -3.3412219013
 H         -1.0509595120       -0.6066792770       -3.4208200259
 H         -2.2091476497       -1.3211538111       -4.1616636206
 O          5.5565975161        1.4138132386        2.3025311554
 H          5.0659918722        1.5933374621        3.1083025809
 H          5.5610032744        0.4480665107        2.2121402846
