  192

 H         -0.5425054112       -1.1597996585        0.9180873604
 C         -0.6112510051       -0.5412956740        0.0100749183
 H         -0.5391308395       -1.1969144470       -0.8712436602
 C          0.5103658647        0.5037878336       -0.0094871839
 H          0.3911098457        1.1518924072        0.8600966289
 H          0.3944399221        1.1152669956       -0.9056411630
 O         -1.7891825170        0.2100258093       -0.0077307040
 H         -2.5646581753       -0.3620747641        0.0026734602
 N          1.8637421187       -0.1172780949        0.0059475208
 H          1.9871272141       -0.7237037740       -0.8163106222
 H          1.9839787968       -0.6890763206        0.8531041603
 H          2.5930828886        0.6072400317       -0.0077051379
 O          4.4979960210       -0.5424608551        0.9964465725
 H          5.4330229051       -0.7844210335        0.8316006139
 H          4.1446421283       -1.2787681013        1.5256832153
 O          1.8631827420       -0.8629456525        2.5681688196
 H          1.7071828714        0.0982812971        2.6647377506
 H          1.0871875531       -1.2875288274        2.9864411967
 O          1.6410727874        1.8352543539        2.8472035354
 H          1.4184195322        1.6506513518        3.7792383832
 H          2.6145360194        1.9217919937        2.8172962335
 O         -4.4912412337        0.7909025378       -0.5056451178
 H         -4.7067608544        1.3497838660       -1.2811053908
 H         -4.3967673196        1.3993574821        0.2614830102
 O         -0.6417502401       -0.4399650781       -4.3806404318
 H         -1.4698265138        0.0361817342       -4.5120087466
 H         -0.8495316429       -1.2423142159       -3.8725445212
 O         -1.2449142894       -2.5233686440       -2.5756530615
 H         -1.6613382067       -3.3872088885       -2.7382812032
 H         -2.0106115082       -1.9319364705       -2.3964615390
 O         -0.4756723423       -3.9138667369       -0.1861470187
 H         -0.6763461653       -3.4118650401       -0.9905198961
 H          0.4526438300       -3.6813044925        0.0333601115
 O          3.7851880960        4.0818456080        1.3971155000
 H          4.2341681113        3.8594374396        2.2144420328
 H          3.6343415727        3.2207481163        0.9394111060
 O         -1.6915613543        1.8879659357        2.1643114963
 H         -1.6595908564        1.2449426500        1.4326943036
 H         -1.8026703855        1.3621814539        2.9778170201
 O         -2.3846131529        0.1932304438        4.1366455900
 H         -2.6423269355        0.4724398177        5.0152141562
 H         -3.2054208107       -0.1522514523        3.6944063759
 O          3.5763370799        1.9251661730       -0.1560258661
 H          4.5542450417        1.8470196196       -0.2158774797
 H          3.2704892034        2.4651989513       -0.9224927556
 O         -2.0200066267        2.5552385023       -1.2790862488
 H         -2.7114371765        3.1146862624       -0.8817238610
 H         -1.9962014888        1.7094425345       -0.8001515554
 O         -5.2811327338        2.1283096299       -2.7305689856
 H         -5.7641678260        2.7517373952       -2.1402343981
 H         -5.9324725344        1.4448777531       -2.9619814978
 O         -1.6867712996        4.6300186480        1.4435889674
 H         -1.6177445808        3.7305327851        1.7934219922
 H         -0.8254373848        5.0236223127        1.6093246852
 O         -0.3743758863       -1.6388746707        3.7885235734
 H         -1.0473350249       -0.9579166919        3.9643312977
 H         -0.8262314855       -2.2841770636        3.2191428878
 O         -4.5312951120       -0.6496577661        2.8673019747
 H         -4.8834097554       -1.5195295963        3.1618408713
 H         -4.2521313565       -0.8129733970        1.9431228877
 O         -3.5907633211       -1.6220497780        0.5456769597
 H         -2.9413134472       -2.1514661621        1.0599607255
 H         -4.1613510997       -2.2612147098        0.0757144515
 O         -3.3073657931       -0.8640868795       -2.3508147347
 H         -3.7195808738       -0.5031049157       -1.5494071060
 H         -3.0747704574       -0.0737627889       -2.8910651896
 O          4.3815936655       -0.6557937359       -1.7214308616
 H          3.7991994345       -0.0438216760       -2.2212121488
 H          4.3718908057       -0.4079825993       -0.7812031664
 O         -1.7959498862       -3.0599058453        1.9113092214
 H         -2.4230169924       -3.7664071108        2.1172879187
 H         -1.2451334395       -3.4091483720        1.1647584096
 O          1.5990029847       -1.7104881462       -2.2207257613
 H          1.8857152192       -1.4618510961       -3.1176539883
 H          0.7438642121       -2.1341634809       -2.3331692882
 O         -5.1531811954       -3.4877372629       -0.6319493440
 H         -5.3491247124       -3.1154498578       -1.5327199553
 H         -5.9677497593       -3.3377086668       -0.1187691163
 O          0.2150877356        4.0343052995       -0.8926454489
 H          0.4515161464        4.1729184493        0.0483522151
 H         -0.5428830386        3.4177607801       -0.8984939175
 O          1.0656485630        4.2484719777        1.6496260102
 H          1.0549827899        3.3899807830        2.1093731398
 H          2.0080194367        4.4723716905        1.5754003711
 O          1.9396941444       -2.9574084683        0.3410215037
 H          2.4444429301       -3.0083677324        1.1671512642
 H          2.5597140209       -3.1725816064       -0.3756620737
 O          6.9849934130        1.0657542960        2.3806333323
 H          7.6212756004        1.5697233704        2.8867161152
 H          6.0860161386        1.3762551034        2.6328100873
 O         -5.5399155687       -2.2730947851       -2.9210364083
 H         -4.6724958761       -1.8279013972       -2.9251775350
 H         -6.1903145232       -1.5564216902       -2.9685386150
 O         -5.4845317813       -3.1053926888        3.1235476882
 H         -6.1924907431       -3.0036946765        2.4673671176
 H         -4.8873063682       -3.7721975130        2.7611999277
 O          3.9619385256       -3.2635219120       -1.5539093270
 H          3.9896625898       -2.2773248287       -1.5876768009
 H          3.6701096224       -3.5023135526       -2.4512165881
 O          4.3518279819        1.4849400660        2.7721149000
 H          4.2381221019        0.8471976038        3.5166843081
 H          4.3270763982        0.9006318180        1.9817350758
 O          2.9907491663        1.0651682094       -3.1795605647
 H          3.5818001184        1.8344038186       -3.2065301125
 H          2.0890393924        1.3951570961       -2.9716578964
 O          6.8849031892       -1.4715772842        0.1570130013
 H          6.7562427517       -1.7428894039       -0.7761107460
 H          7.6348203752       -0.8545739685        0.1203687801
 O          6.6440321940        0.6318989940       -2.5079884961
 H          6.1865470431        1.3689530223       -2.9442958350
 H          5.9628941762       -0.0558862249       -2.3729590081
 O          6.2302624106        1.8787942653       -0.1492832776
 H          6.5299228438        1.3952072243       -0.9450050116
 H          6.6968874511        1.5006455161        0.6114588732
 O          2.6033689081        3.6121638418       -1.9523846552
 H          1.6883333055        3.7226677749       -1.6068632222
 H          3.0699751900        4.4294908546       -1.7685206800
 O          3.9128354104       -0.6125476220        4.3290058210
 H          4.7499638262       -1.0576814023        4.1261648021
 H          3.2611002645       -0.9592554478        3.6846053680
 O          3.8205215126       -2.9013655161        2.3200597874
 H          3.9024865189       -3.2266539686        3.2158875093
 H          4.5080783458       -3.3677278044        1.7821017578
 O         -7.1087579632        0.0454691862       -2.7256357462
 H         -8.0152759447        0.1391825255       -3.0169911465
 H         -7.1284579911       -0.0616046807       -1.7443524872
 O         -6.8792491435       -0.2299772991       -0.0838933287
 H         -7.2860316981        0.5251754808        0.3880643906
 H         -5.9223179398        0.0155159576       -0.1527440628
 O         -6.0224999984        1.6136392221        3.1986763286
 H         -5.6500785445        0.7132684231        3.1862795433
 H         -5.3288300301        2.1541011837        2.7826184538
 O         -2.7478507681        1.3894796947       -3.6135345281
 H         -2.3307224411        1.8933250220       -2.8817802189
 H         -3.6612454605        1.7039411869       -3.6397767178
 O         -3.7427242070        4.4935482312       -0.3097669778
 H         -3.6717306890        4.7796302464       -1.2469031161
 H         -3.0201478432        4.9067649132        0.1909188819
 O         -4.1739121585        2.5289220470        1.4796817469
 H         -3.2747574140        2.3617134379        1.8369701822
 H         -4.1141198656        3.3619909367        0.9887073221
 O          0.4063350167        1.5687043248       -2.8672564902
 H         -0.0482661039        2.3741451301       -3.1545936480
 H          0.0403350082        0.8367467692       -3.3957576005
 O          1.4007803364        0.5135918349        5.1875560132
 H          2.2986105837        0.1684826679        5.2718948856
 H          0.8269509554       -0.2528091443        5.0879690139
 O          6.2907642923       -1.5057858871        3.2055409100
 H          6.6752045009       -0.6777670060        2.8732109368
 H          6.7285341011       -2.2163675893        2.7352958675
 O          5.5888006243       -3.8736003959        0.6412766916
 H          6.1898839149       -3.1203731396        0.5340915501
 H          5.0255047402       -3.8772694965       -0.1484582078
 O          2.1208322488       -0.9116838132       -4.7814561245
 H          2.5169676286       -0.0971894188       -4.4185190274
 H          1.1936649930       -0.7145726216       -4.9659109561
 O         -3.8777437830       -4.7480161845        1.4366936906
 H         -3.6809904569       -5.6617992485        1.2378087850
 H         -4.3361149512       -4.3845294250        0.6584203060
 O         -6.4199191460        3.5109332980       -0.7837063463
 H         -6.8297697341        3.0255454555       -0.0480941500
 H         -5.7196013254        4.0616753355       -0.4165010095
 O          5.3614492483        4.3430631111       -0.9104030431
 H          5.9555665828        3.6485772992       -0.5808502876
 H          4.8003635772        4.5582194493       -0.1491889236
 O         -0.7455555521        4.0441318289       -3.4507653092
 H         -0.4366144083        4.3202254973       -2.5713554543
 H         -0.2147159298        4.5113880970       -4.0943142159
 O         -7.6470810682        1.9717475052        1.2067017086
 H         -7.0748718504        1.8465324417        2.0206545045
 H         -8.5028973923        2.2640413627        1.5182707676
 O          5.0947017003        2.8330500248       -3.1482855346
 H          5.1311822561        3.4173529833       -2.3605688323
 H          5.2059448142        3.3989941521       -3.9098323274
 O         -3.4611728178        4.6121244991       -2.9461528929
 H         -4.0605194335        3.9101150132       -3.2156240493
 H         -2.5653555324        4.3455783952       -3.2089286471
 O          3.8382132676       -3.0258051720       -4.2266252503
 H          4.6829511485       -2.5878851735       -4.3505423457
 H          3.1726167460       -2.4161356032       -4.5785555615
 O          8.7425694377        0.2635862888       -0.7622233388
 H          9.6391343990        0.1082653479       -1.0557793572
 H          8.1993069024        0.3838910269       -1.5592922786
 O          6.5544720870       -2.6127023846       -2.2772217169
 H          7.1483293178       -3.3453801268       -2.4365419151
 H          5.6638727322       -2.9868792381       -2.1428512601
 O         -7.1843688002       -2.6437536447        0.9659024429
 H         -8.1218651138       -2.8335884974        0.9904608380
 H         -7.0869876537       -1.7169138867        0.6371800991
 O         -2.7341136231       -4.6894833116       -1.9114620590
 H         -2.1842517162       -4.8947095502       -1.1484036934
 H         -3.5959285570       -4.4067456734       -1.5877915148
