  612

 H         -0.5425059935       -1.1597995391        0.9180914896
 C         -0.6112512470       -0.5412975299        0.0100704676
 H         -0.5391304473       -1.1969161106       -0.8712419757
 C          0.5103651064        0.5037887365       -0.0094878025
 H          0.3911108191        1.1518925079        0.8601032549
 H          0.3944403314        1.1152651994       -0.9056387706
 O         -1.7891796422        0.2100259926       -0.0077276902
 H         -2.5646572818       -0.3620749404        0.0026765235
 N          1.8637391543       -0.1172777311        0.0059479453
 H          1.9871282751       -0.7237055999       -0.8163034000
 H          1.9839809990       -0.6890749849        0.8531041833
 H          2.5930833109        0.6072365679       -0.0077022822
 O          1.8201531075        3.2025457223        1.2844410349
 H          2.7373300298        3.3299723477        1.5871876199
 H          1.8558355877        3.2716864605        0.3196051589
 O          1.5360008527       -1.4879611033        2.3181659271
 H          0.8010720543       -2.1119227706        2.2755266713
 H          1.5227597901       -1.0636603840        3.1888797294
 O          1.5188372085       -1.5787389066       -2.2708046641
 H          2.1452875297       -1.7076336988       -3.0074651502
 H          0.8278797149       -0.9785417069       -2.6307548920
 O         -0.8401063359        0.0942289444        3.5870430545
 H          0.0102053309        0.5988071508        3.5728680684
 H         -1.3264237634        0.4505283390        4.3645739684
 O          0.1581153343       -0.7600306150       -5.8752920635
 H         -0.5497204894       -0.6278206565       -6.5387698783
 H          0.4374055116       -1.6979301753       -5.9183140503
 O         -3.6979243561       -4.2328513547       -1.8275389181
 H         -4.4211109895       -4.7946159226       -1.5035266914
 H         -3.3667546095       -4.7232513784       -2.6122281863
 O          2.9192946159       -3.4112480793        0.8109988409
 H          2.0385553898       -3.3014012843        0.4109677498
 H          3.2727194846       -2.5371416666        1.0442896284
 O          1.0291570026        4.0593093930       -3.6102791808
 H          0.4815371142        4.0960877575       -4.4042297310
 H          0.6098516636        3.3931084158       -3.0337985482
 O          1.2069407162        1.7683871002        3.6167833146
 H          1.4392685009        1.9653615241        4.5427097140
 H          2.0473500215        1.5375079571        3.1739863064
 O          3.2860909455       -1.7844415097       -4.2855549929
 H          3.7474077298       -0.9958436956       -4.5997875718
 H          3.8976560289       -2.5291549795       -4.3275272938
 O         -2.1741056691        2.2876587928       -6.4788465977
 H         -2.2459564164        1.7812078795       -5.6408391177
 H         -1.5264201703        2.9913764806       -6.3254917194
 O          0.8347832364       -3.6107823301       -0.7456284229
 H          0.9776384753       -2.9087943506       -1.4160581928
 H         -0.0800865431       -3.9365805935       -0.7884242909
 O         -0.5334125191        2.3024921030       -2.3523810286
 H         -0.4521938692        1.4070658407       -2.7296720503
 H         -1.4113357153        2.6271700591       -2.6150467989
 O         -5.2380499408        2.7620825368       -3.8156070325
 H         -5.3787943786        1.7981305290       -3.8219007425
 H         -6.0511069457        3.1753158192       -3.4660873140
 O         -0.4539169570       -0.2138584543       -3.3187541722
 H         -1.1682679153       -0.7939970750       -2.9808160697
 H         -0.3523796726       -0.4033371805       -4.2703210191
 O         -2.9552302092        3.3415150513       -2.6509589756
 H         -3.7931933115        3.1044446351       -3.0976914291
 H         -3.1065641706        3.1805801948       -1.7023037687
 O         -3.1244867123       -2.2862088331        0.1885725586
 H         -3.0105282840       -2.0413335177        1.1265410618
 H         -3.9869355632       -1.9264526468       -0.1090941844
 O         -0.4172024103        3.7357886921        2.8602069336
 H          0.2889777012        3.0855343150        3.0605039664
 H         -0.3235885497        3.9172014477        1.9109318584
 O          3.6460565925        0.9186585704        2.7651774879
 H          4.3479940256        1.3121373068        3.3087238224
 H          3.7134561085       -0.0425674143        2.8932884219
 O         -3.1818556223        2.4101295020       -0.1696129715
 H         -2.6303297692        2.2450490835        0.6144277329
 H         -3.1482622229        1.5775628387       -0.6751238278
 O         -2.4996354883       -1.9737620641        2.7665480668
 H         -2.0299896767       -1.1507149589        2.9545628742
 H         -1.7910380630       -2.6201605382        2.5711116485
 O         -0.6898943302        3.7495522423        0.0436422105
 H         -0.5887981121        3.0804403323       -0.6508193596
 H         -1.6270776871        4.0076270118        0.0624829493
 O         -1.5857178475       -4.7432211718       -0.2861598119
 H         -1.7713805090       -5.6834690231       -0.4434066499
 H         -2.3053195674       -4.3027723709       -0.7850562632
 O          2.2909423326        1.1803294662       -2.3836102656
 H          3.0013391812        0.5239326274       -2.2959826414
 H          2.7378846014        2.0426578187       -2.4532162515
 O          3.7905610271       -3.3298412489       -1.7586394334
 H          3.5874767276       -3.5119958938       -0.8237050230
 H          4.7489464267       -3.4448665179       -1.8757077399
 O         -2.0985778038       -2.0304236435       -2.3473517413
 H         -1.6477507264       -2.8528638178       -2.6159464387
 H         -2.4100927269       -2.1811009270       -1.4440628294
 O         -5.3614656114       -6.3332697520       -1.4296837451
 H         -5.8149257171       -6.4784014496       -2.2610236633
 H         -6.0314961176       -6.4896258201       -0.7235954552
 O         -2.7754308268       -7.1100998178       -1.0727879490
 H         -3.7047050691       -6.9050109178       -1.2849136929
 H         -2.3234508972       -7.2593065353       -1.9134091777
 O         -3.6380444965        0.4393197636       -1.9670271024
 H         -3.7623066913       -0.5120172783       -2.0178130026
 H         -4.5270378333        0.8236144852       -1.8438385898
 O          4.2247524783       -0.6738206837       -1.8276256383
 H          3.9047305175       -1.5825448855       -1.9913260386
 H          5.0283455523       -0.5781375065       -2.3697203198
 O          5.6626491756        1.8056920059        4.4320078754
 H          6.5752236386        1.5294438458        4.6270598728
 H          5.6557377848        2.7780835234        4.5003764074
 O          1.0608513940        5.7637330822        1.4700911094
 H          1.2237965590        6.1903742695        0.6188671182
 H          1.3027097822        4.8119919057        1.3786720014
 O         -0.3122424224        5.8472304682       -1.5446384958
 H         -0.4796733880        5.1214320348       -0.9040552601
 H         -0.9945883583        5.7783468422       -2.2277835541
 O         -2.2784356231        1.9700373859        2.3554638055
 H         -1.6715203367        1.2452632022        2.5948783730
 H         -1.7771151453        2.7850112688        2.5891247976
 O          1.7445981734        1.2843793530       -4.9032876537
 H          1.7533978543        1.2411557144       -3.9137864541
 H          1.1746261063        0.5764278401       -5.2265451242
 O         -5.3307818460        2.5954908783        1.3073541474
 H         -4.5689492732        2.7154573905        0.7019300033
 H         -5.2631486567        3.2564061127        2.0213044622
 O         -4.6166023451       -2.3714766501       -3.5140233787
 H         -3.8152873133       -2.2531312049       -4.0682546389
 H         -4.2973045914       -2.8365001790       -2.7160979318
 O         -3.0351384505        5.0446268962        0.0406816530
 H         -3.2098431966        5.9981175449       -0.0697366526
 H         -3.8278818710        4.6085122938       -0.3293924075
 O          2.1286451211        4.5272731949       -1.0139304192
 H          1.3519074088        5.0120057661       -1.3211904294
 H          2.6791550533        5.1491922766       -0.4875555400
 O          3.8796288426        1.6226378818        0.1852888420
 H          4.6750176523        1.1362807744       -0.1017522835
 H          3.8516443213        1.5308938144        1.1573715159
 O         -4.1957540964        0.0661525912        1.4124511752
 H         -3.3597830160        0.4229508795        1.7205020593
 H         -4.7818385433        0.8343964297        1.3467863635
 O         -4.3762499320        1.4191304700        3.9107129311
 H         -4.0926954981        0.5683071673        4.3100574541
 H         -3.6270667517        1.7470263829        3.3712874080
 O          3.5646348166        4.0066928526        4.5980201047
 H          2.9048914336        3.6271625145        5.1814209848
 H          3.2513458079        4.8983299798        4.3450360139
 O          4.0123824853        0.4316710555        6.0134965282
 H          4.6590371188        0.9312444429        5.4704829725
 H          4.4103179850       -0.4272286197        6.2060813783
 O          1.8576105036       -4.0870144294       -3.5180364078
 H          1.9387233276       -5.0289331473       -3.7560109999
 H          2.5866878850       -3.8464388092       -2.9163901649
 O         -0.4824203060       -3.4210845667        1.8944426878
 H          0.1816431156       -4.0212158082        2.2740588586
 H         -0.8596307362       -3.8844147408        1.1282508628
 O          5.4360776947        3.7609381651       -0.6277896853
 H          4.7410407305        3.1513129588       -0.3220790047
 H          5.0422939924        4.3728145578       -1.2719935521
 O          5.7052829578        1.8614986890       -2.7706310913
 H          4.9846430828        2.5096941407       -2.6061012713
 H          5.3280910993        1.2741531882       -3.4579841139
 O          4.6520067542       -1.3567849250        0.6727895380
 H          5.2025564536       -2.1447455727        0.5314905450
 H          4.5564069255       -0.9538582889       -0.2182779998
 O          4.0051072048       -1.7276864551        3.5377779969
 H          4.1872192348       -2.5768140332        3.0946236421
 H          3.2067749040       -1.8589282774        4.0628066047
 O          6.2941669826        0.7127652699       -0.4999164951
 H          6.6167583986        1.3730949890        0.1386458951
 H          6.1838046104        1.1623632634       -1.3673259543
 O         -1.3267279176        7.9577382109       -0.1872937710
 H         -0.9646900857        7.2052388664       -0.7025600506
 H         -2.2702793071        7.9933379454       -0.3767509504
 O         -2.8194395959        5.0346442763        2.6996120093
 H         -2.2611215548        5.8428867176        2.7242455525
 H         -2.9128222311        4.8772881692        1.7371188977
 O         -5.5258012191       -2.1568279294        2.1283259012
 H         -5.0264026370       -1.3575835214        1.8756899820
 H         -4.9524111393       -2.6781524935        2.7087167891
 O         -2.0434642772        1.2863291618        5.6127637343
 H         -2.7914970618        1.0449846730        6.1955047545
 H         -2.1808283490        2.2395184258        5.4087403616
 O         -5.9141050111        1.6787507350       -1.3769042264
 H         -5.7746352248        2.6243306296       -1.1836060595
 H         -6.2971713201        1.2534643700       -0.5873203426
 O          3.6840714329        6.0244874426        0.5390168873
 H          4.0195341177        5.3320127301        1.1420274836
 H          4.3588565475        6.1827439258       -0.1324642395
 O         -2.4205104513        5.7877706912       -3.3191189451
 H         -2.6020227760        5.7650009585       -4.2858225421
 H         -2.5601112249        4.8482447047       -3.0380910860
 O         -0.4971626549        4.4203663874       -5.9684308944
 H         -0.3227469697        5.3421052332       -5.6701178755
 H          0.3088668971        4.1300682358       -6.4325493525
 O          1.8900133353        2.2232953621        6.2331801154
 H          2.7432823326        1.7709475415        6.3199592535
 H          1.2541366724        1.6315524273        6.6701442646
 O         -5.3924472177        4.3145750253       -0.9875193306
 H         -5.8041287450        4.8502483609       -0.2799560812
 H         -5.3634157920        4.9047560219       -1.7604014416
 O          4.3339946359        3.8258456883        2.0312092578
 H          5.1548898623        3.3152450071        1.8779525961
 H          4.1893644585        3.8531228922        2.9912289378
 O         -5.4151055411       -1.4417215416       -0.8519821625
 H         -5.7349974294       -2.3544259219       -0.6460782973
 H         -5.8645861488       -0.8508846053       -0.2211097808
 O          0.1626432781        5.8406819190        4.4612560603
 H         -0.3734899457        6.5633917403        4.1189574880
 H         -0.0117023316        5.0878990662        3.8497028557
 O          6.3936815110       -0.1893490836        2.2836363585
 H          5.6875808971       -0.5389464145        1.6957430370
 H          6.2295649665       -0.5526607587        3.1709752462
 O         -2.5494592859        3.8399662215        5.1951053764
 H         -2.4393372659        4.2344533160        4.3147738043
 H         -1.7724302586        4.0946378932        5.7322734264
 O         -1.1271071637        7.0352956068        2.3450728496
 H         -0.3375179536        6.5248485617        2.0672655542
 H         -1.3419369779        7.5520318114        1.5474786930
 O         -0.4951148930       -6.8560667207       -2.6384929271
 H         -0.1969092407       -7.0440658229       -1.7377121414
 H         -0.7103293210       -5.8963403138       -2.6781928905
 O         -2.7813996293        0.7339592907       -4.4472064956
 H         -3.7434804310        0.6006870441       -4.5732545357
 H         -2.7103604947        0.7747476000       -3.4755637553
 O         -4.1790613424       -4.5616828310        1.2850176477
 H         -3.6422852110       -3.8722055208        0.8503072057
 H         -3.6759860286       -5.3943786460        1.2599040402
 O         -7.2234074749       -1.5327124590       -2.8288220821
 H         -6.4246713273       -1.5172026063       -2.2632338898
 H         -7.4019460073       -0.5935419479       -3.0643741088
 O          4.3926263381        0.7502212351       -4.8218063073
 H          3.4365887393        0.9500124966       -4.9177805919
 H          4.8445150735        1.4614642775       -5.3055190387
 O          1.7652430823       -4.5049315301        2.9352895176
 H          2.3010587293       -4.1674085840        2.1851307699
 H          2.2223556002       -5.2883136012        3.2876018927
 O         -7.7622587023        3.2052308675        0.5268393301
 H         -8.0537243991        3.8119982504        1.2237115853
 H         -6.8504478440        2.9320420378        0.7840852107
 O          2.0528026753       -3.1901943051        5.1813869008
 H          2.0178760580       -3.6482423004        4.3050675569
 H          1.2668700395       -2.6078514867        5.1759700894
 O          0.3926151549       -7.2386913049       -0.0324261684
 H          0.6917335208       -8.0076487216        0.4565551341
 H          0.0236159693       -6.6362210613        0.6350925894
 O          8.0214313432        3.0209714044       -0.8716834506
 H          7.0874008646        3.2990369149       -0.7851233325
 H          8.4480883360        3.6076095628       -1.5206224790
 O          6.5573305001        2.4027852667        1.6174325814
 H          6.5928946014        1.5486139268        2.0836241335
 H          7.2671261819        2.9628655733        1.9727478957
 O          2.6645801223        6.3353607530        3.5631712408
 H          1.8638965795        6.3820030770        4.1109015216
 H          2.3034076430        6.1735348133        2.6688311251
 O          7.8855380489       -1.3111667188       -0.7910962641
 H          8.1786656999       -1.5053768487        0.1138360164
 H          7.1379928317       -0.6713518587       -0.6965913124
 O         -5.7757927154       -4.6358692475       -4.4121688891
 H         -6.4768923998       -4.8195741060       -3.7610189259
 H         -5.3599533880       -3.7993334480       -4.1057365104
 O         -4.9561901946        6.2787271261       -2.7861477213
 H         -5.3896866543        6.4868034717       -3.6121669822
 H         -3.9911473787        6.1791899630       -2.9860179782
 O          1.7498325949       -0.5344717732        4.9047048287
 H          2.5946522024       -0.1564394875        5.2074381052
 H          1.1061694594       -0.3028269721        5.5959372249
 O          6.3739587500       -3.2673749716       -2.4379083311
 H          6.5948154186       -2.3275224767       -2.5891070802
 H          7.1418355985       -3.7145366393       -2.0442496557
 O          5.8470953582       -3.7920430960        0.4112503344
 H          5.3964351156       -3.9952305403        1.2581528472
 H          5.7042931368       -4.5413840745       -0.1929722813
 O          6.3822652544       -1.4531367508        4.6433540907
 H          5.4302460775       -1.6358662170        4.5075785079
 H          6.8596591599       -2.2794522508        4.4585753335
 O          8.5422120573       -1.5891475074        1.8033417995
 H          7.7661763843       -0.9992320821        1.9886872564
 H          9.1219508434       -1.5162105253        2.5787012753
 O          9.0968006676        1.1854731685        2.3268209803
 H          9.7210530607        0.5333325289        1.9701943735
 H          9.4389321819        2.0353073623        2.0067332223
 O          8.3034730727       -4.1389860816        1.2537968373
 H          8.5100750111       -3.1986017934        1.4519577730
 H          7.3717031027       -4.0666985012        0.9310379938
 O          3.6594075856        3.4300529349       -2.7965631159
 H          3.0622748599        3.9059697357       -2.1766992391
 H          3.5801914211        3.8645855449       -3.6663571653
 O          6.4344934874       -0.7746119007       -3.3592809333
 H          6.2116476593       -1.0361598340       -4.2684397666
 H          7.1539185341       -0.1212087842       -3.4480530023
 O          8.1656986579        0.6146901432        4.7632899026
 H          8.4238850058        0.8521681098        3.8449348105
 H          7.5362239406       -0.1249044426        4.7328321441
 O          8.5648366770        0.8510779897       -3.7311926864
 H          9.0159392424        0.9251034985       -2.8683496435
 H          8.3090995140        1.7348886463       -4.0189715531
 O          9.4155550860        0.7877487872       -1.1983037033
 H          8.8600721605       -0.0219884201       -1.0855906889
 H          8.8386106699        1.5421964434       -0.9479949936
 O         -7.7801340432        1.0241276794       -3.0438021126
 H         -8.4743673094        1.1299071432       -2.3668244301
 H         -6.9733134640        1.3161371769       -2.5610310862
 O         -1.4137948806       -4.6629743401        4.3731500477
 H         -1.0012011200       -3.7703783095        4.4708320349
 H         -2.2452238865       -4.5125760943        3.9121571754
 O         -6.2344620886       -3.8262599668       -0.2885845222
 H         -5.5235974306       -4.2070250838        0.2593550632
 H         -6.9517698273       -3.5679674107        0.3305957565
 O         -0.4258756677       -2.2669427888        4.8744990183
 H         -0.9034761176       -2.0451188938        5.7104902956
 H         -0.4897250203       -1.4643919687        4.3245617554
 O         -0.7422411999       -4.2239459586       -3.0471145771
 H          0.2208863751       -4.0581985964       -3.1260304894
 H         -1.0640637177       -4.2791837386       -3.9742681552
 O         10.9097586803       -0.2452073495        0.8638512402
 H         10.4378533841        0.1540995715        0.1090351865
 H         10.9220493764       -1.2048684522        0.6818222433
 O         -6.9186203605        0.2232179292        0.6630179543
 H         -7.7873978663       -0.1724506452        0.8392562345
 H         -6.7742844022        0.7746130268        1.4584241102
 O         -5.1734540126        3.1647020624        5.6715093993
 H         -4.8745686091        2.4936781454        5.0042037698
 H         -4.3648450865        3.6661579238        5.8506979987
 O         -6.8985994053        1.3947714032        3.0539808353
 H         -7.1669911319        0.5338440045        3.4459462258
 H         -5.9647940163        1.5046981334        3.3171660800
 O         -9.1544920782       -1.3683952067       -1.0403552492
 H         -9.0266038724       -0.4332435863       -0.7852140136
 H         -8.4803544974       -1.5871222210       -1.7319790720
 O         -3.2895132898       -5.6766180126       -4.0253295080
 H         -2.7116139441       -5.3800059293       -4.7360588499
 H         -4.2011782516       -5.4896763186       -4.3173644619
 O         -1.9003310869       -1.6199683043        6.9426490539
 H         -2.5503486837       -1.1277415562        6.4100568935
 H         -2.3260454645       -2.4857373934        7.1023141804
 O         -3.7096492790       -0.9349036818        4.9827130268
 H         -4.5438908890       -1.1527136364        5.4282083431
 H         -3.5497345452       -1.6183323249        4.3130464903
 O          2.4014092419       -5.7481887618       -0.9789137467
 H          1.8891480370       -4.9065616197       -0.9626096013
 H          1.7456595387       -6.4288572999       -0.7478699132
 O          2.2207407831        6.4179973685       -3.2497037405
 H          1.9127019953        6.8256632219       -2.4243830235
 H          1.8192201091        5.5161354634       -3.2743240413
 O          8.4403885385       -4.7772886251       -1.4907227021
 H          8.5519941353       -4.6602666852       -0.5324984301
 H          9.0572960440       -4.1619462403       -1.9286776386
 O         -9.1468917264        1.2709790727       -0.7772946372
 H         -8.6695221994        1.9542843957       -0.2710810235
 H        -10.1044433809        1.4308060622       -0.6901535510
 O         -8.4280587189       -3.0745918524        0.9073748510
 H         -8.6834397076       -2.3241837557        0.3364469129
 H         -8.9002768158       -3.8512433195        0.5434565081
 O         -7.1162615601       -1.0703978262        3.8540201214
 H         -6.5767609084       -1.5421122702        3.1591370528
 H         -7.9997316241       -1.4675554516        3.8501866020
 O          9.5837027811       -2.5580152232       -2.4757349390
 H          9.4911397862       -2.2852731612       -3.4023746987
 H          8.9138019503       -2.0439191636       -1.9876185762
 O          7.4330712683        3.4969919548       -3.8569204380
 H          7.3638923783        4.3488939864       -3.4034927035
 H          6.8205258379        2.8958072802       -3.3630433772
 O          7.9201238583       -3.6584854633        4.0632053259
 H          8.7199794366       -3.1535347588        4.2584397714
 H          8.0236023202       -3.9834198340        3.1536378160
 O         -2.6890432270       -1.8361197534       -5.2672287094
 H         -3.3664161585       -1.7438164941       -5.9671674300
 H         -2.4702242841       -0.9230910788       -4.9938094617
 O          4.7109057791       -4.1944151180        2.7570030401
 H          5.0480742125       -4.4462753618        3.6397263283
 H          4.2193743503       -4.9631355637        2.4081783364
 O          6.7642599856        5.6896930345        0.6897748466
 H          6.2292314322        4.9217502129        0.4025534794
 H          6.2395150440        6.1398961924        1.3839409421
 O          3.9305775120       -6.2553185251       -3.0907522952
 H          3.3776839546       -6.0202988663       -2.3085166644
 H          3.3512616819       -6.7835065451       -3.6501923050
 O          8.2144160723        4.3943498701        2.4993263569
 H          7.7834380573        4.9768355710        1.8293184941
 H          9.1107071773        4.2353440568        2.1788284481
 O          5.9526177674       -5.9468643017       -1.2767516035
 H          6.8264291000       -5.7631262618       -1.6457674325
 H          5.3573073017       -6.1747914714       -2.0068073295
 O         -6.1082337690        5.9516760622        1.0349841154
 H         -5.8733602716        5.5244937317        1.8772252850
 H         -7.0617558318        6.0772117735        1.0664088295
 O         10.7892941139       -2.8123103224        0.0416453093
 H         10.1958194248       -3.4458964159        0.4550398182
 H         10.5556749507       -2.7629794437       -0.8970089251
 O          5.4043763226        6.4810959855        2.8759905787
 H          4.4645137968        6.6401652721        3.0274308247
 H          5.6423029135        5.7597330204        3.4793220195
 O          6.4234481809        4.3970005636        4.4504102319
 H          7.1708409417        4.3705426302        3.8192005592
 H          6.7585420387        4.7442728801        5.2743866082
 O          4.9152073779       -4.1328453918       -4.4599635546
 H          5.5206610979       -3.8416202234       -3.7441333877
 H          4.5022902579       -4.9378561051       -4.0947342470
 O          9.8367093756       -1.4891468301        4.2085361618
 H         10.7707096134       -1.2810757927        4.2004497256
 H          9.3768928445       -0.7161341922        4.6014475310
 O         -8.5577685136        3.2149739640        3.8574838389
 H         -7.8705413710        2.5599606765        3.5459632590
 H         -8.6399634242        3.0415058961        4.7969128974
 O         10.0486291237        3.3216026653        0.8942152130
 H          9.2700711202        3.2835558078        0.3029024315
 H         10.8126597834        3.2015144832        0.3124036438
 O         -5.3362731470        4.5022810329        3.2065844325
 H         -4.3905455722        4.7725866151        3.1587416725
 H         -5.4930997423        4.1972518942        4.1118050953
 O          0.0636314013        0.3263729210        6.8681752834
 H         -0.7001717374        0.7885351163        6.4505491405
 H         -0.3455043829       -0.3754550368        7.3843799492
 O         -5.3606417785        0.1456248724       -4.3038163894
 H         -5.2515853224       -0.7840546777       -4.0376630090
 H         -5.7301840348        0.1811868087       -5.2063875207
 O         -7.5506075089        3.9095727120       -3.1151995295
 H         -7.7009692354        4.5851126487       -2.4206166460
 H         -8.3356750448        3.3391081137       -3.0987244822
 O         -7.6516767274       -4.7019869245       -2.4329627265
 H         -7.0776160656       -4.3059978350       -1.7485129859
 H         -8.2222834018       -3.9965939179       -2.7992592932
 O         -4.7344789597       -1.4213389250       -6.9161330098
 H         -5.4617515447       -1.8979801574       -6.4797089442
 H         -5.1224820217       -0.5580837645       -7.1246445509
 O          7.4399962799        5.7535483349       -2.0731716459
 H          8.4003500698        5.7506906771       -2.1344433683
 H          7.2369518793        5.8552414209       -1.1280033771
 O         -6.9168319694       -2.3147393247       -5.4128823305
 H         -6.7860672773       -3.2719277134       -5.4359781778
 H         -6.9414320632       -2.0891936130       -4.4565610231
 O          2.8435526134       -0.5317181327       -6.9774166251
 H          3.1226225315       -1.4477373727       -6.8608876007
 H          1.9000657922       -0.5027921388       -6.7824206904
 O         11.5702856142        2.5546410561       -1.3227398885
 H         12.3374169899        2.1536731552       -0.8736034179
 H         10.9370664722        1.8305104969       -1.4264350156
 O         -4.1774023187        7.4169489001       -0.3789278849
 H         -4.8787905391        7.1679582254        0.2418502069
 H         -4.5416668732        7.2330930426       -1.2590481455
 O         -4.6593076137        3.2065122682       -6.3419749189
 H         -4.7942536692        3.0446534164       -5.3799271292
 H         -3.7707553255        2.8379440691       -6.5469184134
 O          4.6575735533        5.9867205222       -2.0238629939
 H          5.4657860987        6.2197588694       -2.4849056305
 H          3.8921049435        6.1931530361       -2.5897607622
 O         -9.3673691878       -0.2002988679        1.6770706690
 H         -9.3381568829       -0.3713503746        2.6351841467
 H         -9.5374717766        0.7587286172        1.6146988236
 O         -6.1036843049        0.9131587992       -6.7525789706
 H         -5.6350230473        1.7651690667       -6.8129383584
 H         -7.0266580763        1.1316763523       -6.5083684596
 O          3.6508886795       -6.2120402867        1.3622069963
 H          4.5402934467       -6.5997681403        1.3019436558
 H          3.3542453935       -5.9605486624        0.4636948741
 O         -8.2501037350        5.3460515339       -1.0167490663
 H         -8.0171746263        4.5507988741       -0.4910086980
 H         -9.2038847934        5.4176767572       -0.9548634224
 O          6.3633679070       -2.0962780598       -5.7736526702
 H          7.3203797256       -2.0214557761       -5.6106838264
 H          6.0957124749       -2.9677915662       -5.4630168238
 O         -4.5668374927       -3.5448830067        4.3374882683
 H         -4.3891722602       -4.4653799324        4.0825832824
 H         -5.5179881756       -3.5445699728        4.5859954783
 O          5.6413525341        2.9748776712       -5.8429471590
 H          6.3801341826        3.2307762411       -5.2569709707
 H          4.9748990040        3.6693707152       -5.7098222595
 O          8.9484091271       -1.5309619013       -4.9766029522
 H          9.5152012823       -1.4408162964       -5.7410090441
 H          8.7524311946       -0.6124879532       -4.6953179327
 O          1.6669758675        7.4781907618       -0.6957055210
 H          0.9628480902        8.0937982684       -0.4771866105
 H          2.4409010111        7.6712238471       -0.1580840597
 O         -6.3194874234       -5.5154579235        2.6825416143
 H         -5.8094615925       -6.1573847739        3.1872884091
 H         -5.6507112136       -4.9752627259        2.2229946007
 O         -3.1276983653        5.4268890739       -5.8241136222
 H         -2.2843923816        5.1153351045       -6.1763892566
 H         -3.7869269895        4.7578170720       -6.0758914320
 O         -8.3892864247        1.6872993590       -5.5898019515
 H         -8.1575142486        2.6269607443       -5.7504045183
 H         -8.1406943732        1.5036647964       -4.6612859431
 O        -10.6369281254       -0.0559334380       -3.0678834727
 H        -10.1617477498       -0.5709164705       -2.3903436592
 H        -10.2348171320       -0.3355432798       -3.9116609385
 O          9.8286221689        4.3462831060       -2.4327539560
 H         10.6053557934        3.8855777186       -2.0759804392
 H          9.7126363181        4.0474450378       -3.3377924862
 O         -9.2716645041       -0.8886305043       -5.3219049943
 H         -9.1253958879        0.0085668156       -5.6508360989
 H         -8.4677645050       -1.3779285392       -5.5682992734
 O         13.1833076029        0.9674221311        0.1310396368
 H         12.4209674102        0.5249897396        0.5620902107
 H         13.7321343105        0.2690629523       -0.2242556509
 O        -10.0933805933        2.6766736978       -3.1203664572
 H        -10.3114560512        1.7222778492       -3.0950604067
 H        -10.3457306721        2.9827245107       -3.9920818167
 O        -11.8632970549        1.2683515729       -0.7610516663
 H        -11.9904605505        0.5602072037       -0.0923110518
 H        -11.9304123118        0.8459848227       -1.6217989459
 O        -10.6870324151        3.7815872775       -0.5689301136
 H        -11.5228342565        3.3080419018       -0.4993042487
 H        -10.3435898492        3.5024544720       -1.4343140460
 O          1.8695226448        3.3559587992       -6.5245400877
 H          1.7305887708        2.6408150209       -5.8621980310
 H          2.4590683314        2.9338973053       -7.1868525302
 O         -9.5062042757       -3.0123371966       -3.3585364301
 H        -10.4785883018       -3.0569407460       -3.2897132578
 H         -9.3338725677       -2.4491387706       -4.1188131625
 O         -6.1404749796       -1.0464384342        6.2313090365
 H         -6.4109812527       -1.8566142010        6.6640338072
 H         -6.5478805229       -1.0826895792        5.3172989206
 O          3.6293042481        4.7260196953       -5.1548555585
 H          3.2900089738        5.5914165347       -4.9165570721
 H          2.9141518286        4.2808137514       -5.6816924960
 O          3.7155107428        1.9309336847       -7.7525464796
 H          4.5166972345        2.1688730906       -7.2768270533
 H          3.4776034072        1.0209773328       -7.5023123902
 O         -7.3511007170        4.1299494239       -5.7870515427
 H         -6.4438254342        4.0029299287       -6.0839149040
 H         -7.3288233126        4.2659554695       -4.8233602340
 O         -1.4201718737       -4.1758014330       -5.5991823930
 H         -0.5432436118       -3.9646716974       -5.9553016991
 H         -1.8995814374       -3.3243324174       -5.5745421602
 O        -11.3654925559       -2.8384583762       -0.3681145096
 H        -11.8066998548       -2.1500680222        0.1599696053
 H        -10.5355125243       -2.4182804022       -0.6622870188
 O          1.1330682131       -3.2527519177       -5.9509534359
 H          1.4683616674       -3.3928909101       -5.0387268278
 H          1.9171397359       -3.2866779937       -6.5113446152
 O         -9.4965451917        0.1815653519        4.3478042089
 H         -8.9802404360        0.7021440291        4.9752920540
 H        -10.4189738492        0.4426156091        4.4085335213
 O        -11.8842771318       -0.6697661367        1.0838659477
 H        -12.2644776928       -0.3564329945        1.9161311714
 H        -10.9078901496       -0.6286561806        1.2515580580
 O        -10.1865974874        2.3960633602        1.8370130472
 H         -9.6217080836        2.7706123344        2.5391397044
 H        -10.2169996794        3.0075029955        1.0831593273
 O         -7.5371250243        1.5309997247        5.9787185496
 H         -6.8224314230        2.1804702862        5.9403477451
 H         -7.1241212810        0.6940880915        6.2271514987
 O          3.7911708144       -3.2168544901       -6.8321164343
 H          4.0839117751       -3.6626823024       -6.0216555777
 H          4.5826733014       -2.8199630833       -7.2024373008
 O          1.5054670863       -6.6204060983       -4.3273701826
 H          1.0914876882       -6.4866630915       -5.1798345279
 H          0.7662939745       -6.8400470348       -3.7039702107
 O         -7.1636440712       -3.9149470792        4.7544597760
 H         -7.9540920850       -3.4299791458        4.4542242672
 H         -7.0608107248       -4.6149056182        4.0889251089
 O         -9.1979883370       -2.6834473651        3.4293301523
 H        -10.0588858025       -3.1166024098        3.3961725539
 H         -8.8493307408       -2.8085082792        2.5188070409
 O         -9.4799385068       -5.1071268274       -0.5094225824
 H        -10.3389272986       -4.8039300610       -0.8155067116
 H         -8.8853512608       -5.0790350869       -1.2950433679
 O         -7.2452569552       -6.6798747204        0.4063915675
 H         -7.0006115072       -6.2884115402        1.2644366135
 H         -8.0880855399       -6.2889984783        0.1550849295
 O          5.4935003139       -4.5866440619        5.2664192971
 H          5.1656983147       -3.7890788455        5.7266215320
 H          6.4400604029       -4.4586194967        5.1303089321
 O         -0.0437892159        6.7567902169       -4.7874694432
 H         -0.7484283836        6.7964179442       -4.1333824896
 H          0.7961735768        6.7797245888       -4.2962900566
 O         -0.4463488442       -6.2453883118        2.3557121451
 H          0.3418103042       -6.7896021656        2.5808448074
 H         -0.6582822142       -5.7056605106        3.1365873013
 O         -2.8834061353       -6.9364476023        1.6043310268
 H         -2.8933576539       -7.2841584937        0.6999947425
 H         -1.9452172706       -6.7591246925        1.8291157011
 O         -1.8170534427       -0.1995877691       -7.5869895275
 H         -2.6852457856       -0.6025072603       -7.6610660734
 H         -1.9509073823        0.7445382650       -7.3953697817
 O          4.2597308763       -2.4089061107        6.4124233813
 H          4.1252536228       -2.5047916810        7.3534512252
 H          3.4095898572       -2.6626043034        5.9828553883
 O         -0.2594529525        4.2254456444        6.5402404707
 H          0.4703821854        3.5988386506        6.5378426331
 H          0.0074724860        4.9523085681        5.9490257898
 O          6.2975439801       -6.7769285535        1.2650401690
 H          7.0530894783       -6.3005218170        1.6137974929
 H          6.3152683440       -6.6626476493        0.3001386435
 O        -12.0236647784        1.0278834998        3.2252825741
 H        -11.3794877389        1.5400986737        2.6940876593
 H        -12.8282043646        1.5416055226        3.2304875440
 O        -12.1147363424       -2.5097073015       -2.9619218562
 H        -12.0861325713       -2.6880067739       -2.0060082343
 H        -11.9577824203       -1.5639363336       -3.0781148103
 O          0.8700296941       -5.4757757121        5.9853389490
 H          1.2468933971       -4.5774438531        5.9310866745
 H          0.0462951887       -5.4370825153        5.4904286516
 O         -3.9393496316       -6.1809323673        3.9307167083
 H         -3.4125680289       -6.5563490032        4.6352601940
 H         -3.6052216768       -6.5534857089        3.0923522106
 O         -4.2445223996        0.9389628681        7.1266471347
 H         -4.6862784079        1.7722137666        6.9082172390
 H         -4.8878777075        0.2337255128        6.9928885946
 O         -8.5961235466        5.2386639728        2.1507845850
 H         -8.4861773515        4.7144648307        2.9669847330
 H         -9.5064407970        5.5282484821        2.1149523395
 O         -3.0806271275       -3.9792620510        6.5873163087
 H         -2.3716708219       -4.4669823190        6.1523717515
 H         -3.7059062193       -3.7433960216        5.8749601999
 O          7.2627037844        0.5772685825       -6.2069034015
 H          6.8394616073        1.4295679288       -6.3346824768
 H          6.5951301693       -0.0932513146       -6.3748014533
 O          3.0560049700       -6.2239576638        4.5727692723
 H          3.8623891486       -5.8605074067        4.9526637748
 H          2.3397905656       -6.0797984535        5.2230130497
 O        -10.9642085531       -4.2333602275        2.0255056069
 H        -10.5240572347       -5.0445558197        1.7684213965
 H        -11.2067429053       -3.7871043415        1.1982378431
 O          1.7734441970       -7.6458366886        2.5857429819
 H          2.1310484178       -7.5549897443        3.4756227783
 H          2.4464243660       -7.1916424386        2.0345399491
