  282

 H         -0.5425054112       -1.1597996585        0.9180873604
 C         -0.6112510051       -0.5412956740        0.0100749183
 H         -0.5391308395       -1.1969144470       -0.8712436601
 C          0.5103658647        0.5037878336       -0.0094871837
 H          0.3911098457        1.1518924073        0.8600966290
 H          0.3944399221        1.1152669956       -0.9056411629
 O         -1.7891825170        0.2100258093       -0.0077307040
 H         -2.5646581753       -0.3620747641        0.0026734601
 N          1.8637421186       -0.1172780949        0.0059475207
 H          1.9871272141       -0.7237037739       -0.8163106222
 H          1.9839787968       -0.6890763208        0.8531041601
 H          2.5930828886        0.6072400317       -0.0077051380
 O          3.7501554335        3.4743655839       -3.1427160495
 H          3.2616676474        2.6944804238       -2.7932737770
 H          4.5510260166        3.0928753126       -3.5310886396
 O          1.8531219141       -1.7224573586       -2.1930518262
 H          1.0808610916       -1.5360444580       -2.7564375725
 H          2.5736874760       -1.9690152313       -2.8070787906
 O         -0.4019493331       -1.3348861814       -3.6819501256
 H         -0.6914531204       -2.1026566736       -3.1292478987
 H         -0.9712433463       -0.5960382488       -3.3722573980
 O         -4.2615822630        1.7840708171       -1.5036879828
 H         -3.8372621511        2.0711363974       -0.6650120507
 H         -4.6723714337        2.5862306468       -1.8750003012
 O          2.2709459767        1.2997404823       -2.6263940273
 H          2.0639751871        0.8940257827       -3.4949072069
 H          1.4793912177        1.8376760238       -2.4387031843
 O          1.9644422817       -1.7679247536        2.1524111812
 H          1.4539835936       -2.5034967226        1.7522556662
 H          1.4377844338       -1.4510474211        2.9155459353
 O          1.2341615431        1.0459429053        2.8310666734
 H          0.4290068299        0.6210678476        3.1354241364
 H          1.0562022645        2.0030590374        2.9043137695
 O          4.6405226888       -0.4298341342        0.8812693612
 H          4.2162503809       -0.1757141411        1.7284615464
 H          4.2759587347       -1.3110852658        0.6343771353
 O          0.4848680305       -3.7913665585        1.2113622456
 H         -0.4656099048       -3.5635568717        1.1448195296
 H          0.7919480335       -4.0192175673        0.3147551505
 O          0.7324015437        3.6704968538        3.2396485727
 H          1.6962686763        3.7822125947        3.1553361759
 H          0.3301596927        4.2794176730        2.6016554024
 O         -2.1389103308        0.4090275477       -2.7033721414
 H         -2.0724411649        0.5025742517       -1.7347294342
 H         -2.3371463517        1.2960686705       -3.0584951244
 O         -1.1716998198       -2.9979898087       -1.8434751339
 H         -2.0076899411       -2.6596065864       -1.4787752968
 H         -1.2036028033       -3.9653458915       -1.8132199122
 O         -0.8446641927        3.3981379380        0.0011058513
 H         -1.0641907711        2.8832050213        0.8130605318
 H         -0.0040952712        3.8642120749        0.1939971657
 O         -3.2897589677       -1.8964758436       -0.5768431887
 H         -3.0374049808       -2.3471303739        0.2498164747
 H         -4.2376059438       -2.0365552908       -0.7400136439
 O         -1.4140090650        1.9570128891        2.1112169097
 H         -2.0472134940        2.4029090950        2.7001882538
 H         -1.9166324675        1.3366926934        1.5653182613
 O         -3.8796713802        2.5111276994        0.9747000926
 H         -4.8307260353        2.6997468488        0.9986461967
 H         -3.4463539572        3.3476169777        1.2264138979
 O         -1.7643018473       -0.2241454884        3.8825610024
 H         -1.4998412186        0.6578097745        4.2328953336
 H         -2.4605623490       -0.5672670609        4.4820556253
 O         -3.6620689346       -0.5105527372        1.9838222582
 H         -2.8306253731       -0.4221856724        2.4879875376
 H         -4.0874328942       -1.3328013456        2.3105988063
 O         -2.1607863530       -3.3084607461        1.3906365849
 H         -2.4986938752       -4.1238907149        0.9729882266
 H         -2.3050420642       -3.3879476460        2.3529633793
 O          1.6415447330        4.3077489662        0.0187429721
 H          2.2209662617        3.5224110113        0.0147389615
 H          1.6709799064        4.6867254196       -0.8793088866
 O          4.6009345181        0.2731298933       -1.6984695100
 H          3.6931361391        0.5405390954       -1.9152314903
 H          4.6699213634        0.1721385857       -0.7288151044
 O          3.2759691605        2.1493341074        0.3386401507
 H          3.2331424208        2.4421428291        1.2728353354
 H          4.2238414912        2.2257919333        0.1065893139
 O          5.9071384675        2.3679253878       -0.0435759008
 H          6.3956888278        1.7672500140       -0.6320155387
 H          6.3638468507        2.3092761136        0.8186013954
 O         -5.5927880754        0.2144613806        0.2347322005
 H         -5.2317844186        0.8151783190       -0.4534284613
 H         -4.8302443021        0.0193218700        0.8093556792
 O          3.7362163255        0.2758842822        3.3044152165
 H          4.2631429359        1.0502418567        3.5549170116
 H          2.8132182742        0.5744416496        3.1544607143
 O          0.4777194824       -1.5106163563        4.3227290694
 H          0.3931625803       -2.4782399581        4.3886350997
 H         -0.4201326236       -1.1461849193        4.1550031044
 O          7.0568223624       -0.6714035788        1.9353139015
 H          7.5900884197       -1.1313995412        1.2636810221
 H          6.1697701997       -0.5961283048        1.5067530835
 O          1.5011853023       -4.2677108692       -1.3097124988
 H          2.4194603826       -4.5756042727       -1.3467925911
 H          1.5565299368       -3.2994117254       -1.4880432505
 O         -5.9457639646        0.8444458464       -3.3973138540
 H         -6.1783026061       -0.0692885375       -3.6170629895
 H         -5.1668190602        0.8184554073       -2.8183346817
 O         -2.6178611356        4.6064361179       -1.5398025979
 H         -2.0677501851        4.1406311527       -0.8715145979
 H         -3.4248730711        4.8892370145       -1.0812488308
 O         -3.6361560700       -1.6717102795       -3.5179576108
 H         -3.1602819996       -1.8300219186       -4.3703524009
 H         -3.1925676024       -0.8899867371       -3.1255612624
 O         -4.9372004018        1.0553263887        3.7852505838
 H         -4.4719833490        0.6198222829        3.0372058697
 H         -5.8263352586        1.2369020596        3.4628855189
 O         -6.2219486762       -1.8383431283       -3.6079787689
 H         -5.2317382884       -1.8159563559       -3.6921845088
 H         -6.5281478620       -2.6328104769       -4.0462704210
 O          3.3681564544        3.4544564175        2.6846472071
 H          4.1320745673        3.2496830827        3.2374560345
 H          3.5524299693        4.3268563602        2.2458655176
 O          5.8266581190       -1.7882488079       -2.7835091426
 H          5.3622180237       -1.0595198989       -2.3104122065
 H          5.1618175091       -2.1722405573       -3.3705508735
 O          3.4495825728       -2.5754483640       -0.0658545688
 H          3.3385612015       -3.2731552927        0.5984919123
 H          3.8493209091       -3.0349717356       -0.8202132096
 O         -5.4812270909       -4.1720549723        0.8146839818
 H         -4.7312031221       -4.7327126472        0.5694597852
 H         -5.5199377015       -3.4601532062        0.1549094730
 O          7.4103599299        1.9159098454        2.1520655338
 H          7.3405093963        0.9266291622        2.1248867022
 H          8.2538802249        2.1198740871        1.7241932758
 O          5.4401828366        1.4908093632       -3.9756186570
 H          6.3220460001        1.1828700326       -4.2156880476
 H          5.2700141436        1.1120032585       -3.0924088682
 O          0.0572257678        2.7594342685       -2.3755061897
 H         -0.3046726137        2.9683214667       -1.4809745339
 H         -0.7099414191        2.6990178107       -2.9559583904
 O          1.4184714068        5.0921056220       -2.5486643558
 H          2.2686433111        5.0156409417       -2.9888706773
 H          0.9315323812        4.2616856028       -2.7208752214
 O          5.3938641604       -1.9008891409        3.7324374816
 H          6.2183747462       -1.5006032415        3.4183870455
 H          4.7380029827       -1.1853778530        3.6818422212
 O         -0.7723416526        2.0299889895        4.9784297143
 H         -0.3320740209        2.6709386161        4.3956976484
 H         -0.0483851696        1.6044667054        5.4775604255
 O         -3.7540953671       -4.1823959276       -2.6120655806
 H         -4.7011579344       -4.4018107717       -2.6389090695
 H         -3.6826311371       -3.2230256289       -2.8061170503
 O         -2.3886878250        2.9494697054       -3.6143013419
 H         -3.2160968122        2.8883914591       -4.1394214182
 H         -2.5617336127        3.6159329263       -2.9121283233
 O         -3.9186406832       -1.2096793867        5.1114417289
 H         -4.2975216324       -1.8587060434        4.4982327566
 H         -4.4315043722       -0.3977724725        4.9786943485
 O          1.3061587231        0.3462427025       -4.9271834633
 H          0.6803677936        1.0407350410       -5.2084284994
 H          0.7588839894       -0.4045358711       -4.6524440879
 O         -6.5345422535        3.1774830423        0.6107219383
 H         -7.0035998594        2.8801936113        1.3964002885
 H         -6.9057327551        2.6662561281       -0.1420519963
 O         -4.8729502785        5.2728300073       -0.0998407971
 H         -4.2856917967        5.4365657336        0.6554364477
 H         -5.5494722716        4.6626264175        0.2336405272
 O         -3.1305707600       -5.2258489148       -0.2336800578
 H         -3.3310543923       -4.8109468854       -1.1048139290
 H         -2.3988814348       -5.8204536327       -0.4295855938
 O          1.3906958568        0.6045784655        5.8111787927
 H          2.2189383794        0.8677980249        5.4064207193
 H          1.1536165016       -0.2467941829        5.4047262842
 O         -5.0600531600       -2.5506661743        2.9551282220
 H         -5.1543753252       -3.2790993189        2.3139395940
 H         -5.9589123811       -2.2127928524        3.1122686855
 O         -5.9360364985       -2.1037099873       -0.9548775680
 H         -6.0242131052       -1.2456193638       -0.4809632441
 H         -6.1309718479       -1.9154190077       -1.8944468687
 O         -4.7085157038        2.7174134913       -4.8996795206
 H         -5.1025757758        3.5121033121       -4.5255429238
 H         -5.2184292804        1.9856706734       -4.5018420807
 O          3.5876292048        5.6676896648        1.3093783390
 H          2.7184224988        5.4786508571        0.9137987062
 H          4.2101774454        5.5243331011        0.5727669217
 O          0.5056198190       -4.2081501689        3.9680543896
 H          1.4398012023       -4.2418163595        4.2176273563
 H          0.4949114908       -4.2216505241        2.9957473018
 O          3.1725809767       -3.5228687981        3.8242867410
 H          2.8533094655       -2.7599366314        3.2927788640
 H          4.0411206361       -3.2504585342        4.1424362079
 O         -7.2635975688        0.9609851077        2.1938345367
 H         -6.6992127828        0.6998745037        1.4296411588
 H         -8.1725592916        1.0428519579        1.8328868850
 O         -2.9860357764        4.9023859313        1.8811131899
 H         -2.0554208368        5.1849618482        1.7839770901
 H         -3.0684450434        4.5436693497        2.7763674845
 O         -3.1235791699        3.0930708924        3.9618070575
 H         -2.5013671670        2.8757788330        4.6666032147
 H         -3.8381570503        2.4297459518        3.9971415339
 O         -7.5684567866        1.7239108095       -1.4110777979
 H         -7.0307337358        1.5321564082       -2.2034771206
 H         -7.8711087406        0.8546261812       -1.1131199020
 O          4.9137148924        4.7763432054       -0.9079232146
 H          5.4050162111        4.0024115828       -0.5904890278
 H          4.4590525789        4.4798328698       -1.7087489659
 O         -8.5822541953       -0.8632769736       -0.7636877464
 H         -9.1530853292       -1.2450564468       -1.4308898743
 H         -8.3394288333       -1.6030551094       -0.1564830507
 O         -8.0820032092       -2.8370288447        0.9570144801
 H         -8.0147667435       -2.3845584204        1.8154654923
 H         -7.3789408882       -3.4953816992        0.9560368939
 O         -2.2248776705       -3.5841056377        4.0552914155
 H         -1.3584167407       -3.9550712674        4.2672910742
 H         -2.5070792130       -3.0419155860        4.7948939481
 O          3.5443621259       -2.5924022772       -4.0975128506
 H          2.7990066130       -3.1080760357       -4.4453895048
 H          3.6702986949       -1.8198510256       -4.7012018441
 O          6.6911257099       -3.7779694871       -1.1273267437
 H          6.3932505047       -3.6231922515       -0.2128222118
 H          6.4512229538       -2.9879066031       -1.6452860740
 O         -0.4471757804        2.3558564851       -5.5040294020
 H         -1.0857886023        2.7738876848       -4.9063056870
 H          0.3330392876        2.9348432011       -5.5279553438
 O          1.1701689331       -3.9737075936       -4.1514287976
 H          1.2370226784       -4.2162694586       -3.2180316653
 H          0.2544252867       -4.1572228027       -4.4010767338
 O         -0.3936988965        5.6780851773        1.6193615748
 H         -0.3860954699        5.9252727759        0.6595968092
 H         -0.0599854155        6.4413543720        2.0888226491
 O          3.9060953994       -0.3297307289       -5.4020490075
 H          4.4379806173        0.3525782554       -4.9523616768
 H          2.9908477695       -0.0106096117       -5.4166395427
 O          7.6422882541        0.7195917094       -1.3238694551
 H          7.7276691967        0.5748584799       -2.2825259962
 H          7.7338980968       -0.1702512418       -0.9272208814
 O          5.7464723537       -3.4666490490        1.4022915495
 H          5.1091573805       -4.1874819465        1.4366666552
 H          5.6486207638       -2.9707289579        2.2301807796
 O          8.2784020325       -1.6614943372       -0.2593193215
 H          8.1440329651       -2.5755304755       -0.5470746345
 H          9.2183390136       -1.5121940611       -0.0405231794
 O         -2.1321526829       -1.9766741835       -5.6536458505
 H         -1.3240068506       -1.7891930472       -5.1358038263
 H         -2.3801073580       -1.1214468485       -6.0393786375
 O         -5.6399528260        3.9614180836       -2.4770834179
 H         -6.5577928495        3.7451423897       -2.2957002431
 H         -5.3935564134        4.6619931817       -1.8571623679
 O         -1.5923580205       -4.5189623357       -4.3863736292
 H         -1.8237805442       -3.8934055258       -5.0812604167
 H         -2.3520257696       -4.5257035195       -3.7825888155
 O         -9.5844764864        1.0431491353        0.9046631335
 H         -9.3820366956        0.2991306071        0.3050189543
 H         -9.8057260103        1.7923382879        0.3492556878
 O         -0.8041458219       -5.7271495832       -1.7607609822
 H          0.1050954085       -5.4426092207       -1.5778344391
 H         -0.8715066757       -5.8550060518       -2.7116958964
 O          9.4327505472        1.9035411517        0.2618969639
 H          9.8966374722        2.6101601520       -0.1867127863
 H          8.7785198061        1.5388454854       -0.3810194808
 O          7.6396407111       -0.1779501438       -3.8777559676
 H          8.3907148580       -0.6334054013       -4.2551190772
 H          7.0080012297       -0.8730624559       -3.5722516003
 O         -0.5433432353        6.3667891084       -0.9412809442
 H          0.1828181747        6.1542757170       -1.5404205057
 H         -1.3281171235        5.9219268611       -1.3012718929
 O          2.0920076620        3.3089112314       -5.3056681504
 H          2.5700404411        2.7246462856       -5.8948297391
 H          2.6925547317        3.4868437025       -4.5573973717
 O         10.5224066895       -0.5927164061        0.6981208739
 H         10.2501509881        0.3359321214        0.5763324587
 H         10.5965117597       -0.7304040983        1.6433023245
 O          4.1840386275       -4.4257431534       -1.9568975612
 H          4.1404044151       -4.0917022728       -2.8593215082
 H          5.1300132833       -4.4868154053       -1.7168889229
 O          3.3107757100       -4.8461498478        1.5304214490
 H          2.6323007518       -5.5103284384        1.4151080492
 H          3.2418308907       -4.5091125369        2.4516371336
 O         -7.5290099996       -1.4399857147        3.2503301875
 H         -8.0816036769       -1.4075408210        4.0303267491
 H         -7.4340412966       -0.5085418411        2.9217736442
 O         -2.6947768238        0.6727580093       -5.8843536912
 H         -3.4193894217        1.3028354092       -5.8482604036
 H         -1.8854876540        1.1938659620       -5.9558705649
 O          5.4950341410        2.3136326630        3.9981250668
 H          5.8997639048        2.3729682598        4.8628497986
 H          6.2237809139        2.2556578096        3.3491112216
 O         -6.4182794149       -4.5906387491       -2.1611988977
 H         -6.5081967592       -5.3425114463       -1.5744228828
 H         -6.6290038173       -3.8098690306       -1.6327342308
