  386

 H          0.4630927076        1.1941025327        0.8323452956
 C          0.5529035761        0.5095402430       -0.0251092077
 H          0.4633421182        1.0989800596       -0.9466436098
 C         -0.5779259333       -0.5149488604        0.0205351876
 H         -0.4518492549       -1.1270258238        0.9278134320
 H         -0.4840892691       -1.1748678656       -0.8448928486
 N         -1.8603253886        0.1647702477       -0.0623309409
 H         -2.6131021663       -0.5138473281       -0.0751527666
 H         -1.9956541839        0.7570092263        0.7508171932
 O          1.7808081027       -0.1833448060        0.0209869107
 H          2.5006908393        0.4507195083       -0.0567171280
 O         -1.6597802382        3.6589391042       -0.6755859771
 H         -1.4781400507        2.7706305415       -0.3661718477
 H         -2.4054560042        3.5965793154       -1.3004027868
 O          1.4820315853        3.8320638719       -0.7624268071
 H          0.9545357326        3.4494534279       -1.4908517607
 H          0.9360333000        3.7581243569        0.0456155029
 O          3.2541703963        1.9133928509       -0.5349997649
 H          3.5059996440        1.6466622301       -1.4309380381
 H          2.6541478805        2.6875224829       -0.6396910820
 O          1.5649911895        0.8959025582       -3.9793991277
 H          0.9812467722        1.5871884067       -3.5739052846
 H          1.4031010574        0.0765213361       -3.4606636035
 O          0.1093731422        2.6676376170       -2.7540577948
 H         -0.2390411490        3.3759473006       -3.3283195861
 H         -0.6826721887        2.0939194709       -2.5713716951
 O          0.4270404140        1.6755254399        3.3977432147
 H          1.1028193411        0.9988272040        3.2075481198
 H          0.7899475311        2.2311081891        4.1132456225
 O         -2.0532661103        1.6034540242        2.5627283308
 H         -2.7342605996        1.0094281848        2.9489401965
 H         -1.1972453496        1.3922004677        2.9803830587
 O          0.1835864512        3.6012226032        1.5548892233
 H          0.1344019202        2.8826966341        2.2183116340
 H         -0.6241872531        4.1537829695        1.5884598630
 O         -4.6552083760       -0.0093143041        0.5215020848
 H         -5.4560974108       -0.1434613830       -0.0111545000
 H         -4.4868928863        0.9475216794        0.5108918906
 O         -5.0851418762       -2.7703200582        1.3951649719
 H         -4.1790556099       -2.4124061755        1.4268132581
 H         -5.1055078653       -3.5168974065        2.0272614270
 O          2.9402465747        2.1470076346        2.2474354223
 H          2.7210618237        3.0882239216        2.3135604866
 H          3.1459069343        1.9583677516        1.3257023090
 O         -2.5808945221       -2.2231364438        1.9113996988
 H         -1.9934446636       -1.5620758174        2.3149058685
 H         -2.0138573679       -2.7550258871        1.3187913331
 O         -2.9744024615       -2.2235402105       -1.2773874701
 H         -3.2981585377       -2.9372002265       -0.7019158485
 H         -3.7143654284       -1.6455552901       -1.5467909533
 O          1.4112941663       -1.2508864124       -2.4406952971
 H          0.7430374665       -1.9659605101       -2.4085835298
 H          1.6323886027       -1.0039575041       -1.5182984367
 O         -1.9269022941        1.1133904053       -2.4547660660
 H         -1.9752951395        0.6956936943       -1.5354856425
 H         -1.7197994087        0.4231287244       -3.1088717006
 O         -2.7338009158       -3.5486769407       -3.4955109116
 H         -2.8172127999       -2.9388992007       -2.7121420052
 H         -3.1160230782       -3.0748071346       -4.2612070877
 O          1.9528377806       -0.5322295557        2.9638273896
 H          2.2842733421       -1.1910873110        3.5944361952
 H          2.6671756433       -0.3785981198        2.3055615521
 O         -0.6442907527       -1.0585465316        3.2722366335
 H         -0.7919993115       -0.5894253719        4.1285451256
 H          0.2900839315       -0.8845302310        3.0475674623
 O         -0.2993792516       -3.2916884081       -2.1349495412
 H         -0.7790572122       -3.2133938213       -1.2844741116
 H         -0.9565693867       -3.3239153178       -2.8444660101
 O         -4.6768656470       -0.6883399088       -2.6178820691
 H         -5.4137907362       -1.2285459504       -2.9506787415
 H         -5.0475350795        0.1115425056       -2.1870835246
 O          3.6326298740        1.3916463981        4.7126975893
 H          4.4820926907        1.8831307875        4.8315245693
 H          3.3951912328        1.5133804605        3.7683378840
 O          4.0787140124       -0.3472773994        1.3955816626
 H          4.6942484547        0.3846022048        1.5610725215
 H          4.4775991810       -1.1755449892        1.7065683104
 O          1.7950153655       -2.7898230337        0.8773947354
 H          2.3991473751       -3.2515725690        0.2682617928
 H          1.9989661921       -1.8435133793        0.7916068646
 O          4.0146419846        1.1177616140       -3.0729098834
 H          3.0843126232        1.1166252315       -3.3882542453
 H          4.3953338728        0.3225569698       -3.5128011642
 O         -0.7215563685       -3.5295478873        0.4709865630
 H          0.1815212559       -3.1722162545        0.6202538101
 H         -0.6624042519       -4.4633564776        0.7387263596
 O          5.6700752365        2.7901266957       -1.1675958884
 H          6.4008462899        3.0386374090       -1.7748916454
 H          4.8804877304        3.2316304392       -1.5289303005
 O         -6.9058383776       -0.5564341946       -0.9790891452
 H         -7.6170403399       -0.2269745102       -0.3920487980
 H         -6.7707205574       -1.5072709710       -0.8176660684
 O         -3.9925183392        2.6289212990        1.0312478167
 H         -4.4987444627        2.9010932304        1.8290945134
 H         -3.1207936976        2.4052968099        1.3825927045
 O         -6.6203517798        1.1259715610        2.6968894131
 H         -5.7632476361        1.0046130657        3.1387338917
 H         -6.4792015250        1.6495239277        1.8809957078
 O          5.7119851563       -0.0055747762       -1.1634731332
 H          5.3047315263        0.8625867842       -1.2926306200
 H          6.1395025934       -0.2405445109       -2.0133425671
 O         -5.4304939309        1.7322030841       -1.7927840037
 H         -6.1443402854        1.9447366695       -2.4263233602
 H         -5.7645781345        2.0031754191       -0.9126709547
 O         -4.1129766307        0.0650580112        3.1409638029
 H         -4.1396388305       -0.7567323829        3.6513607363
 H         -4.3013064523       -0.1586918851        2.2065985811
 O         -3.9489926175       -2.4876417125        4.2813044884
 H         -3.3944986620       -2.5511537441        3.4813496094
 H         -3.3123159910       -2.4624594965        5.0404775268
 O          4.0587716745       -2.1956999071       -0.7301720027
 H          4.3982058297       -1.2892760807       -0.7930588274
 H          3.8874837735       -2.5176671128       -1.6342089264
 O          2.2981360139        4.8139536419        2.6063117649
 H          2.5808275677        5.3832845205        1.8613154989
 H          1.4120477690        4.5004442410        2.3155027472
 O          2.6937453560       -2.5371974953        4.7014103930
 H          2.3956375597       -3.3169014351        4.1963023404
 H          3.6293217928       -2.6444951796        4.8865968779
 O          4.8642387127       -2.6188468060        2.6090085333
 H          5.8207827684       -2.7431465148        2.7296898439
 H          4.5142590590       -3.4777642513        2.2960483795
 O         -5.0149520534        3.5531123444        3.3350431729
 H         -4.1455214730        3.8886538532        3.6315233649
 H         -5.2722081117        2.9105120595        4.0231233413
 O          7.0977383141       -0.8696811238        1.0702968155
 H          7.0837825103       -0.3848574183        1.9158487717
 H          6.4722490915       -0.4258628027        0.4797404759
 O         -0.8639768627        0.0751347319        5.6266030668
 H         -1.0448960635        1.0295625436        5.7486061232
 H          0.0732959193       -0.0330012801        5.8961991222
 O         -3.4575046001        3.2157088706       -2.6718879897
 H         -2.9288049573        2.3890270069       -2.7394076948
 H         -4.2785694106        2.8932110490       -2.2363828264
 O         -3.4265032430       -4.6054248833       -0.0287458766
 H         -2.9665787901       -5.1388749938       -0.7094718296
 H         -4.2932973015       -5.0268093372        0.1116130756
 O          7.1378736960       -0.2735618705       -3.3827278789
 H          8.0747234571       -0.5156855145       -3.3944326774
 H          6.9917833603        0.2926351669       -4.1685197131
 O          3.3245840253       -2.8883343991       -3.2123753837
 H          2.9215777055       -3.7115745263       -3.5564515745
 H          2.5669298864       -2.2884736213       -3.0345439339
 O          3.0199930932        5.8957033072        0.2632351446
 H          3.9773865177        5.8171802908        0.1562740564
 H          2.6337762436        5.1947670108       -0.2916133379
 O         -6.3660917364       -3.2189348750       -0.8311876927
 H         -5.7761932852       -3.1229386669       -0.0483012357
 H         -5.8942007507       -3.7816982805       -1.4677414193
 O         -6.4097831944       -2.4647187626       -3.8601925592
 H         -7.3124624302       -2.2679728609       -3.5580640980
 H         -6.1779991649       -3.3291196855       -3.4978625422
 O         -5.0590841126       -4.6819843960       -2.7142550578
 H         -4.1973605318       -4.3266966892       -3.0328245388
 H         -4.9007212696       -5.6006870030       -2.4936742774
 O         -1.1338583109       -0.2428490996       -4.5826381771
 H         -0.6706812907        0.4953686665       -5.0085651467
 H         -0.5570722448       -1.0336433588       -4.6028287328
 O          1.7578157885       -0.2522195070        6.0792802848
 H          2.0234323938       -1.1289459354        5.7751156292
 H          2.3826622740        0.3726736065        5.6862653642
 O          8.1747196225        1.1479391786       -0.8465493580
 H          7.2475164657        0.8608252819       -0.8973556544
 H          8.2732400293        1.6689695032       -0.0102632035
 O          8.2227095492       -3.0577024899       -1.7580911665
 H          7.4539378401       -3.0864126825       -1.1388454143
 H          8.7333681751       -2.2841367139       -1.4550066055
 O         -3.8056733597        0.2873543271       -4.9179812844
 H         -2.8360159592        0.2640166538       -4.9092542654
 H         -4.0778554055        0.0428274054       -4.0001401294
 O         -4.1204480889       -2.3044452886       -5.4525824258
 H         -4.0389457995       -1.3258536624       -5.3782373377
 H         -5.0122368065       -2.5008900716       -5.1389770315
 O         -1.4165206109        4.4556584277       -4.1048745639
 H         -1.1472981528        5.1774888245       -3.5070363416
 H         -2.2762079911        4.1684158048       -3.7645402319
 O          6.3156105813       -3.1602425252        0.0373953710
 H          6.6531840247       -2.3924821312        0.5517159473
 H          5.3894425073       -2.8869445999       -0.2248461377
 O          1.6824413259       -4.7985488088       -4.0529489504
 H          1.2646737434       -5.3158081894       -3.3603516642
 H          1.0589136532       -4.0946608094       -4.3132440734
 O         -2.4034221607        3.9707485491        3.8167329225
 H         -2.2558338330        3.1219135310        3.3461067970
 H         -2.1407470998        4.6688517644        3.1948400188
 O         -1.0475175773        2.7514854243        5.8962582392
 H         -0.1415030242        3.0793962054        5.8743784360
 H         -1.5565034955        3.3021372327        5.2790065309
 O          3.9091366318        4.5234212049       -2.1592014745
 H          4.4673364271        5.2450014881       -2.4478870551
 H          3.0490516937        4.6309324582       -2.6040438654
 O         -8.5666442799       -3.2383229294        0.6645365422
 H         -7.8624477752       -3.3693081530       -0.0013679790
 H         -8.2769794781       -2.4411653836        1.1540211139
 O          4.6819006894       -1.0486366369       -4.4910068286
 H          5.6065200147       -1.2849882295       -4.3242161890
 H          4.1970771197       -1.7958175926       -4.0691622753
 O          0.3283720210       -2.5258338183       -4.8693219281
 H         -0.3174468742       -2.7229787283       -5.5739006136
 H          1.0880630763       -2.0981366466       -5.3178268624
 O          5.1693258363       -0.8844375087        4.6916157662
 H          4.8815026344       -1.4048280032        3.9246616972
 H          4.5479165758       -0.1351754358        4.7745864506
 O          2.2451441932       -0.9454718882       -5.9310650489
 H          3.1609574475       -1.0915233851       -5.6619351673
 H          1.9515492271       -0.1679509390       -5.4352217395
 O         -0.4229923141        2.2315407476       -5.6601626189
 H         -0.9056237648        2.9959114520       -5.3191992320
 H          0.3852900946        2.5743158976       -6.0466197022
 O          1.5842060805       -4.3902659861        3.0021786380
 H          0.7294070712       -4.1622279933        3.4475439474
 H          1.6808718015       -3.7347512643        2.2743546822
 O          4.0219296065       -5.0896994737        1.8825937234
 H          3.6875297561       -5.0375155809        0.9599935614
 H          3.2340250086       -5.1636835505        2.4331928427
 O          5.6420176267        1.8724869370        1.4387389522
 H          5.2871574656        2.6059396583        1.9765402956
 H          5.5161442734        2.1358866470        0.5127716309
 O          0.5033283864       -5.7765196633       -1.4137211132
 H          0.3414904597       -5.9621728342       -0.4770242179
 H          0.3019539474       -4.8282028713       -1.5625385817
 O         -7.2106211972       -1.2391388919        1.8030513758
 H         -6.3500132095       -1.6896443374        1.6874645392
 H         -7.0080796040       -0.3171390055        2.0993985902
 O          8.2479315666        2.3482646980        1.4749953397
 H          8.8001990416        1.7541399543        2.0111000347
 H          7.3157935780        2.1179168293        1.6780253814
 O         -0.4289865293        5.7432341276       -1.9102369956
 H          0.4466085735        5.4056699149       -2.1444594711
 H         -0.8533784222        5.0420628481       -1.3755424697
 O         -5.1797111531       -4.6842934429        3.2892494816
 H         -6.1618678249       -4.6704230652        3.3614738939
 H         -4.8517926507       -4.0115811934        3.9158331363
 O         -2.4860706956       -5.1655281009        2.4409754050
 H         -3.3074008701       -5.2853736380        2.9284606492
 H         -2.7645147932       -4.8858390388        1.5403800110
 O         -8.6830319298       -1.3991571721       -2.7837515113
 H         -9.4595153921       -1.6039174594       -2.2472505852
 H         -8.0545254109       -0.9543607644       -2.1688693171
 O         -0.7396345745       -3.6384423542        3.9372417740
 H         -1.4093374472       -4.1147196323        3.4125050739
 H         -0.7346970713       -2.6987514775        3.6357561938
 O         -1.7405880445        5.4472703844        1.6437329617
 H         -2.4642176348        5.4481279881        0.9987657643
 H         -1.0902468676        6.1077081832        1.3356168731
 O          7.1286327557        0.3994057070        3.4710795512
 H          8.0282966052        0.2718763760        3.7793548072
 H          6.5152876019       -0.1398031195        4.0287093028
 O          5.0618495890        4.2274576965        2.6495897255
 H          5.3782173412        4.7246169517        1.8699480090
 H          4.1596577967        4.5247298118        2.8226485904
 O          5.7970285376        5.1659394291        0.2347088688
 H          5.7335920579        4.2986647187       -0.2142078075
 H          6.7246098994        5.4107813346        0.1439956958
 O          9.6139898659       -0.9903137485       -0.6237730693
 H          9.5161618580       -1.4194883878        0.2610957284
 H          8.9589511443       -0.2417837942       -0.6354619845
 O          6.7730962339       -5.2296445476        1.5680353117
 H          5.9074513347       -5.5696081357        1.8291339727
 H          6.5512427504       -4.5069962776        0.9299866087
 O          1.6830495634        4.9472291297       -3.6400589971
 H          1.5122031674        5.7573592677       -4.1184946945
 H          1.9027928735        4.2648167781       -4.3185484933
 O         -2.2234955888       -5.8937376450       -2.0623996752
 H         -2.2581488322       -5.2210751076       -2.7577185815
 H         -1.2847932592       -6.0958020745       -1.9230070663
 O         -4.0938602219        5.1259631530        0.0481455051
 H         -3.9859172469        4.1782981182        0.2835318460
 H         -4.5037698458        5.1257040981       -0.8246999251
 O         -6.3895892093        4.9368622534        1.4643954944
 H         -6.0411335962        4.6182277920        2.3161543420
 H         -5.6000264486        5.2573090540        0.9795280091
 O         -6.6491141209        2.5012062450        0.4191232492
 H         -7.4866904730        2.5446439664       -0.0784841129
 H         -6.4907540943        3.4151120357        0.7436731785
 O          9.5438215941       -2.2556826197        1.7054943137
 H          9.6944681413       -3.1270299419        1.2820003800
 H          8.7065267871       -2.3732666283        2.1864183363
 O         -7.2130650281        2.5532691077       -3.6153459465
 H         -7.6519060050        1.7942571890       -4.0530548654
 H         -6.4666063945        2.7669638631       -4.2267666326
 O         -9.1489083695        0.4637064656        0.0098121755
 H         -9.7573948074       -0.2853293089       -0.0853239690
 H         -9.2150295329        0.7980959102        0.9308771134
 O         -4.9419089053        2.8216428349       -4.9653693076
 H         -4.3854702462        3.1712447477       -4.2489073500
 H         -4.5980699149        1.9281856025       -5.1365230835
 O          5.1503833990        3.1040972155       -4.4417424880
 H          5.8620849310        3.5675701179       -3.9819906967
 H          4.7867025243        2.4482967770       -3.8020866643
 O          2.5238798336        3.1365014985       -5.3916452289
 H          3.4794701697        3.2255480746       -5.2460201846
 H          2.2764264242        2.2706831951       -5.0396042211
 O          9.8941916930        0.4222816993        2.5824480986
 H         10.5642022808        0.7425760158        1.9604479644
 H          9.7834110126       -0.5141301316        2.3638730316
 O          1.7002162613        3.3420124677        5.0776281707
 H          2.4579610802        2.7360022948        5.1734425127
 H          1.9769635468        4.0417186088        4.4742799542
 O          2.9979400546       -4.8009726347       -0.5787753947
 H          3.7463935297       -4.8311926758       -1.2108857215
 H          2.2863190573       -5.3308506801       -0.9647439622
 O         -0.0343412721       -5.9696882318        1.3822282699
 H         -0.8404595001       -6.0939210451        1.9013999222
 H          0.6372095526       -5.6145429714        1.9946349416
 O         -6.1622842311        4.6300170835       -1.7955880969
 H         -6.8879629567        4.9909781462       -1.2844963881
 H         -6.5542205848        4.1433330989       -2.5280485610
 O          5.2094036200       -4.8951830397       -2.0833136457
 H          5.3549395159       -4.2133754575       -2.7623786016
 H          5.8914239302       -4.7623625322       -1.4211236731
 O          9.2806574395        1.9345896015       -3.1384306900
 H          8.8349725242        1.5763826265       -2.3388602195
 H          9.5973236945        1.1723118686       -3.6288952901
 O          7.4459832942       -3.2459426435        3.1716835061
 H          7.3223190020       -4.0935984983        2.6752347320
 H          7.6540265468       -3.4640828420        4.0785275700
 O         -2.0444444921       -2.3685847489        6.0710525051
 H         -1.6772471085       -1.4667250302        6.0754926075
 H         -1.3976742046       -2.9263780999        5.6139785878
 O         -8.7687234435        2.8175934609       -1.2393921762
 H         -9.0985046692        1.9310343605       -1.0031309621
 H         -8.3974677281        2.7524434369       -2.1300806117
 O         -5.1926796952        1.6970764988        5.2826183081
 H         -5.5904726021        0.8085243175        5.3529993809
 H         -4.3468509576        1.6470288568        5.7298106663
 O         -9.2512250541        1.5842468173        2.4522098819
 H         -8.3455112078        1.4819387286        2.7931068636
 H         -9.3180884797        2.5194460493        2.1679265466
 O          9.8409796097       -0.8890265089       -3.3430150979
 H          9.9701212458       -0.9001373285       -2.3796432360
 H          9.9416982378       -1.7946708541       -3.6369455469
 O          0.2413688014        6.8955398532        0.4943284108
 H          1.1904887684        6.7394431534        0.5378240073
 H         -0.0231349366        6.6827743512       -0.4183199852
 O         -8.0737539879        0.3048253648       -4.7825949805
 H         -7.3286995662       -0.1523015073       -5.1771927542
 H         -8.4552401982       -0.3081759470       -4.1271032463
 O         -6.0655244914       -0.8822480107        5.4057355265
 H         -5.4015151891       -1.5367384743        5.1617079084
 H         -6.9172994870       -1.2276965293        5.0973033053
 O          7.4037896894        3.8739158767       -2.8263879581
 H          8.0803492933        3.2762709954       -3.1861399383
 H          7.8213646283        4.2829441896       -2.0422654894
 O          8.4409589848        4.4561173588       -0.3556110071
 H          9.3507440048        4.2264527101       -0.6392520361
 H          8.2934394717        3.8467411211        0.3846100064
 O          5.9682116253        2.6121177091        4.6748118921
 H          6.4840501452        1.9436937377        4.1914821058
 H          5.8148127691        3.3393929343        4.0548505371
 O         -9.1130112328        4.0424884108        1.3322412597
 H         -8.2705218480        4.4976248060        1.4703366826
 H         -9.1715978720        3.8396370424        0.3900887367
 O         10.6934583272        3.2499428722       -1.1571898359
 H         10.3479633073        2.8471063375       -1.9706492768
 H         10.8881521401        2.5141979791       -0.5576378124
 O         11.3429380251        0.8772422097        0.2439781420
 H         12.2548955443        0.6393072350        0.0875376441
 H         10.7897156897        0.1645030405       -0.1470751466
 O         -8.2445711459       -2.0023697315        4.1052116981
 H         -9.1620060194       -1.7234805038        3.9996187348
 H         -7.8241831273       -1.6923833967        3.2661915855
 O        -10.4343979007       -1.8817120831       -0.6327093317
 H        -11.3132554804       -2.1172253306       -0.3407985187
 H         -9.8093925810       -2.4691452001       -0.1391659854
 O         -7.8022110574       -4.4463326902        3.0697251862
 H         -8.0139452042       -3.6745699430        3.6333210937
 H         -8.1697127428       -4.2130097473        2.2025018177
 O         -5.7759436602       -5.7430346443        0.6959404229
 H         -5.6215659230       -5.7075252699        1.6479647034
 H         -6.6721283288       -5.4299686522        0.5564600471
 O          6.4445384097       -3.0904121787       -3.7869067721
 H          6.7679100160       -3.6616111441       -4.4810608171
 H          7.1648229851       -2.9931379625       -3.1309379033
 O          6.4341342322        1.0352925207       -5.6078015645
 H          5.7131405507        0.4466798231       -5.8459108567
 H          6.0211018584        1.8786843551       -5.3345906134
 O          9.3274069874       -4.5485656000        0.3311033125
 H          8.5762694394       -5.0115799081        0.7191068133
 H          9.0274425013       -4.2049645997       -0.5273495629
 O         -1.6498805957       -2.3808644216       -6.6700639188
 H         -2.5479527753       -2.5604110533       -6.3577904591
 H         -1.6072732759       -1.4326790274       -6.8154840063
 O        -10.3899291563       -0.8763373122        2.7355737767
 H         -9.9813650886        0.0069780564        2.7281608197
 H        -11.3330399068       -0.7258184514        2.7579493900
