  192

 H         -0.5425054108       -1.1597996584        0.9180873599
 C         -0.6112510051       -0.5412956738        0.0100749185
 H         -0.5391308394       -1.1969144469       -0.8712436603
 C          0.5103658646        0.5037878333       -0.0094871844
 H          0.3911098458        1.1518924068        0.8600966293
 H          0.3944399217        1.1152669958       -0.9056411626
 O         -1.7891825169        0.2100258093       -0.0077307036
 H         -2.5646581753       -0.3620747644        0.0026734604
 N          1.8637421186       -0.1172780949        0.0059475206
 H          1.9871272143       -0.7237037738       -0.8163106219
 H          1.9839787971       -0.6890763205        0.8531041602
 H          2.5930828883        0.6072400320       -0.0077051375
 O          4.6823936137       -0.4551429314       -2.1633934018
 H          3.9461022571       -1.0389582553       -2.4099487092
 H          4.6572820638       -0.4252695202       -1.1801712125
 O          2.3109212265       -1.7896121388       -2.0299413652
 H          2.2319571226       -2.6823440466       -1.6434692938
 H          1.6304044986       -1.6940333906       -2.7237836653
 O          0.2872476375       -1.3039244598       -3.7238295247
 H          0.1243875959       -0.4116749187       -3.3736329955
 H         -0.5980914617       -1.6865684330       -3.7897673626
 O         -2.4151304788       -1.5604790691       -3.2543923781
 H         -3.3577708901       -1.5151932813       -3.4629869650
 H         -2.1512200106       -0.6416909523       -3.0157565868
 O          3.9049165280       -3.1475042642        2.9239372269
 H          3.5158766358       -3.8540864508        3.4496925699
 H          3.1166219202       -2.6671605525        2.5692913973
 O         -1.4549997123       -3.0909858761        3.1075951826
 H         -2.1320272372       -2.3859245047        3.0694648968
 H         -0.7517591715       -2.6793218674        3.6306616841
 O          1.7320190394       -1.9962338770        1.9206079385
 H          1.1511654145       -2.6637742250        1.5143750571
 H          1.2743781775       -1.6926545617        2.7378857092
 O          1.7034068724        1.6727663903       -2.7997721379
 H          2.6296596694        1.9223731881       -2.9006182765
 H          1.3557206204        1.5393736342       -3.7039665136
 O         -1.2331926539        0.7656679647       -2.6894816956
 H         -1.4096745385        1.5747675633       -3.2051583822
 H         -1.5919092615        0.9292462513       -1.8040860496
 O         -1.6979867407       -3.3754915174       -1.4545647161
 H         -1.9709873006       -2.6516927251       -2.0648427253
 H         -2.5108565404       -3.8882414584       -1.3161600926
 O         -3.1990624409       -1.0587631896        2.9564652006
 H         -3.4554170609       -0.2243024322        3.4174078755
 H         -3.3549240080       -0.9396037493        2.0079386724
 O         -1.0897627264        0.9304477216        3.9833077280
 H         -1.6524114158        0.9928382804        4.7576338646
 H         -1.6699482173        1.1885532403        3.2287638589
 O          0.3971506559        3.8862582524       -2.1764114057
 H          0.8926800042        3.0681776242       -2.4352967712
 H          0.9833976550        4.3459060076       -1.5572800243
 O          4.6199854593       -0.6298850395        0.4907714278
 H          4.4852796176       -1.5977187950        0.4647975270
 H          5.5636566338       -0.5052974054        0.7352249732
 O         -3.6153135583       -1.6845022579        0.3150818560
 H         -3.4958249690       -2.5668927842        0.7052360106
 H         -4.3569020647       -1.7792603858       -0.3088009487
 O          3.3577585693        2.0540663957       -0.1142686445
 H          4.0995608887        2.1192077906        0.5190257182
 H          3.7413509788        2.1336669690       -1.0198169839
 O          0.3986811445       -1.3138084650        4.1173863541
 H         -0.2408176876       -0.5844472536        3.9911895086
 H          1.0582588947       -0.9263777065        4.7365313552
 O         -3.9298453296        0.9582879796       -2.0312088044
 H         -3.9915242207        1.8577200342       -2.4084580493
 H         -4.2546343415        1.0071512727       -1.1171304637
 O         -1.3101731541        2.9242668372       -0.4242329014
 H         -0.8519324096        3.2779872544        0.3637384402
 H         -0.7742509634        3.2657324026       -1.1767460483
 O          0.0301873543        3.9951666537        1.6407472953
 H          0.4576880861        3.3738662235        2.2641451001
 H          0.7467590954        4.3606586188        1.0960357364
 O          1.2566740583        2.1922010080        3.2433860520
 H          1.8816763055        1.5031237416        2.9352514281
 H          0.4950262097        1.7321499085        3.6338769743
 O         -2.5694750486        1.7907227267        1.9541314116
 H         -2.5264047812        2.7652940678        2.0196978305
 H         -2.0811908471        1.5123833581        1.1541673477
 O         -5.7443774092       -2.3221649412       -1.2821825351
 H         -5.6053573331       -1.8730893388       -2.1382791324
 H         -5.3505220880       -3.2040241803       -1.3565727739
 O         -4.7487544426        1.0818048541        0.5748929527
 H         -4.0373999196        1.2709406372        1.2230558690
 H         -5.1737695009        0.2314878057        0.8156620887
 O         -6.3132467623       -1.0497012618        1.0406890175
 H         -6.3793105955       -1.5142698376        0.1907603781
 H         -7.1455649378       -0.5808884279        1.2092064305
 O          4.4637900622        2.1702752196       -2.5134785158
 H          5.2842548679        2.5463394413       -2.1506690701
 H          4.6272512876        1.2083371291       -2.5963551571
 O         -2.6256552946        4.5077594609        2.1106131016
 H         -1.6640798452        4.6326589190        2.0863655564
 H         -2.9567824464        4.6733611884        1.2074703186
 O          0.4514431736        1.4773979896       -5.1797608492
 H         -0.3028644539        2.0668778800       -5.0441519198
 H          0.1057891715        0.6014304406       -5.3645171141
 O          3.0930922770        0.3837091230        2.5476209691
 H          3.7024928994        0.1933323585        1.8169184853
 H          3.4844114211       -0.0650832335        3.3179722230
 O          7.2263354562       -0.5213334272        1.0371020936
 H          7.6592777761        0.0023361306        0.3406872023
 H          7.3420400037       -1.4669526654        0.7598438709
 O          7.2064039563       -2.8773576502       -0.0815639004
 H          7.2162444871       -2.5280176266       -0.9937073441
 H          6.3356787128       -3.2722628179        0.0483646074
 O         -5.0970103937       -0.8772914328       -3.4501171272
 H         -5.6494753120       -0.4876811518       -4.1265286087
 H         -4.7034318057       -0.1240621035       -2.9250711984
 O          2.1515477521        4.4097808012       -0.0101968748
 H          2.9439302315        4.9263908168       -0.2314903702
 H          2.4667481848        3.4760643185       -0.0738404459
 O         -3.6758870105        3.9580688083       -0.3205130055
 H         -2.7839434678        3.5209067707       -0.4263354586
 H         -4.2745224853        3.2663188701       -0.0247753894
 O          7.0921069929       -1.5021805798       -2.4552741821
 H          6.1578818173       -1.1770441125       -2.4246086351
 H          7.1026206765       -2.1482829134       -3.1628875749
 O         -0.1424044130       -3.6359344209        0.8102893982
 H         -0.7250479052       -3.5153550480        0.0394454705
 H         -0.7086098100       -3.5558931422        1.6039470015
 O         -3.7120584886       -4.1060953523        1.6740752719
 H         -4.4368837165       -3.7376970329        2.2351333746
 H         -2.9495026491       -4.1936845468        2.2548756671
 O         -6.7668248458        2.7339660435        0.8228310756
 H         -6.4294996283        3.3006798378        1.5295560392
 H         -6.0322502847        2.0852406410        0.6867147127
 O         -5.4043631183       -2.6020338305        3.0686193537
 H         -5.8171524654       -2.1462981389        2.3111779609
 H         -4.6136826927       -2.0633476865        3.2761483951
 O         -8.1919628105        0.7152694275        1.8698392040
 H         -9.1341692773        0.8729656688        1.9182675728
 H         -7.7772249278        1.5303502149        1.5037461163
 O          8.2138642014        0.6345360190       -1.2329764916
 H          9.1421506791        0.7195148235       -1.4518536223
 H          7.8622654907       -0.0972870487       -1.7797513079
 O          5.3173750171        2.4170985779        1.6958818620
 H          4.7027985080        3.0249300803        2.1614998663
 H          5.6259746494        1.7741902360        2.3543415916
 O          4.4123200614       -3.3475572235        0.2993315435
 H          4.3879325020       -3.4630895549        1.2708168230
 H          3.5818003503       -3.7321879758       -0.0280376341
 O         -1.6053777345        3.0852039548       -4.0122672968
 H         -2.5107335117        3.3607278685       -3.8065245476
 H         -1.0095703659        3.6628294324       -3.5144616321
 O         -4.1634119716        3.5134167648       -2.9238073027
 H         -5.1282486763        3.4490031450       -2.9363974024
 H         -3.9625176767        3.9249189785       -2.0586241540
 O          2.0319997027       -4.1934433501       -0.7884781615
 H          1.3450181247       -4.1501205729       -0.1059526971
 H          1.5600679739       -4.5086642645       -1.5868204984
 O          4.4603404518       -0.9722439793        4.4536501776
 H          5.2852601904       -0.5304829173        4.1955407128
 H          4.4351893538       -1.8343318509        3.9944183444
 O          2.1744184044        0.0101873498        5.5655997748
 H          3.0526882179       -0.3644430198        5.3848383300
 H          2.2098745059        0.9362988229        5.3140550167
 O          6.4895033354        0.5202319726        3.3568201380
 H          7.2455058048        0.8416391622        3.8476521501
 H          6.8424248078        0.0644696549        2.5620013900
 O          4.7817466750        5.0070239562       -0.1565492320
 H          5.4088827988        4.4481745010       -0.6309421463
 H          5.0771803324        5.0237179331        0.7563643875
 O          6.4853023851        2.7936189495       -0.7949041290
 H          6.2084180641        2.6201706325        0.1205489915
 H          7.1677914649        2.1369777639       -0.9950317421
 O          3.3548773620        3.9975111948        2.6072766147
 H          2.6769621599        3.4685394654        3.0466943249
 H          2.9434321193        4.3359610462        1.7983338231
 O          1.5020218085       -4.0752473422        3.9571336139
 H          1.2318137392       -3.3097075638        4.4731345497
 H          0.7013419736       -4.5262225840        3.6847000858
 O         -4.1553755228        1.0537457052        4.1956883587
 H         -4.3194038971        1.8178502526        3.6214590040
 H         -5.0371471946        0.6589160319        4.3449388855
 O          0.4104123575       -4.3354013726       -2.8945241090
 H          0.5379351388       -3.6787384343       -3.5833556319
 H         -0.3996335345       -4.0745844169       -2.4118722729
 O          4.9642141669       -3.3404764278       -2.5755623022
 H          4.8259327817       -3.3839637206       -1.6229184881
 H          4.3839339567       -3.9939041174       -2.9652813400
 O         -5.0082330690        3.3880466186        2.8772533403
 H         -4.2007974387        3.9018218679        2.7101199200
 H         -5.3561787935        3.6853211302        3.7171711713
 O         -4.1265365669       -4.5619402398       -0.9352087837
 H         -4.0460956476       -4.5274222472        0.0393660622
 H         -4.2756320864       -5.4760193367       -1.1700542871
 O         -6.5801619841       -0.1184529305        4.0865882415
 H         -6.4519008521       -1.0706940563        3.9910497051
 H         -7.1823074781        0.1576979559        3.3812637361
 O         -6.6908688922        2.8917025819       -1.9758608440
 H         -6.7742416640        2.9768875818       -1.0124240738
 H         -7.5821810254        2.8832428100       -2.3221136873
