 xtb: 6.5.1 (579679a)
          11232216293D

 12 11  0     0  0            999 V2000
   -0.5425   -1.1598    0.9181 h   0  0  0  0  0  0  0  0  0  0  0  0
   -0.6113   -0.5413    0.0101 c   0  0  0  0  0  0  0  0  0  0  0  0
   -0.5391   -1.1969   -0.8712 h   0  0  0  0  0  0  0  0  0  0  0  0
    0.5104    0.5038   -0.0095 c   0  0  0  0  0  0  0  0  0  0  0  0
    0.3911    1.1519    0.8601 h   0  0  0  0  0  0  0  0  0  0  0  0
    0.3944    1.1153   -0.9056 h   0  0  0  0  0  0  0  0  0  0  0  0
   -1.7892    0.2100   -0.0077 o   0  0  0  0  0  0  0  0  0  0  0  0
   -2.5647   -0.3621    0.0027 h   0  0  0  0  0  0  0  0  0  0  0  0
    1.8637   -0.1173    0.0059 n   0  0  0  0  0  0  0  0  0  0  0  0
    1.9871   -0.7237   -0.8163 h   0  0  0  0  0  0  0  0  0  0  0  0
    1.9840   -0.6891    0.8531 h   0  0  0  0  0  0  0  0  0  0  0  0
    2.5931    0.6072   -0.0077 h   0  0  0  0  0  0  0  0  0  0  0  0
  1  2  1  0  0  0  0
  2  3  1  0  0  0  0
  2  4  1  0  0  0  0
  4  5  1  0  0  0  0
  4  6  1  0  0  0  0
  2  7  1  0  0  0  0
  7  8  1  0  0  0  0
  4  9  1  0  0  0  0
  9 10  1  0  0  0  0
  9 11  1  0  0  0  0
  9 12  1  0  0  0  0
M  CHG  1   1   1
M  END
