  117

 H         -0.5425054112       -1.1597996583        0.9180873603
 C         -0.6112510052       -0.5412956741        0.0100749183
 H         -0.5391308395       -1.1969144469       -0.8712436601
 C          0.5103658647        0.5037878336       -0.0094871840
 H          0.3911098457        1.1518924074        0.8600966289
 H          0.3944399221        1.1152669956       -0.9056411629
 O         -1.7891825170        0.2100258092       -0.0077307040
 H         -2.5646581753       -0.3620747642        0.0026734602
 N          1.8637421187       -0.1172780948        0.0059475210
 H          1.9871272141       -0.7237037740       -0.8163106224
 H          1.9839787968       -0.6890763205        0.8531041602
 H          2.5930828886        0.6072400318       -0.0077051380
 O          4.5696814854       -1.3929774155        2.3209145133
 H          4.6889985100       -2.0448890053        1.6098024875
 H          4.3647876396       -0.5412315700        1.8931561313
 O          1.6534944619       -0.8662175517       -2.6207019468
 H          2.4247751460       -0.3727196812       -2.9439361054
 H          0.8820031926       -0.3060489874       -2.8397606323
 O          3.2298470139        2.2391818198       -0.7255399335
 H          3.3858575775        1.8479693858       -1.6056710343
 H          2.4495057594        2.8292155971       -0.8149712959
 O          4.2054667534        1.3619503013        1.8382993514
 H          5.1266267535        1.5132542422        2.0716609257
 H          4.0759758248        1.7450689011        0.9594380714
 O          1.0147243747        3.6891097255       -0.8199661123
 H          0.7563261785        3.7281170758        0.1142454125
 H          0.2051554239        3.5728056695       -1.3304399409
 O         -1.6107641234        2.8528294864       -1.7089223974
 H         -2.4867643803        2.6265792180       -2.0425040578
 H         -1.7122083505        2.8626052353       -0.7345971446
 O         -3.9017231322       -1.3449468850       -0.4600751424
 H         -4.1258892348       -2.0510649531        0.1768282944
 H         -4.7409908717       -0.8911750817       -0.6521521307
 O         -0.5151392955        0.6799224858       -3.0694334686
 H         -0.7951383261        1.5146981085       -2.6594379232
 H         -1.2907803489        0.0997854493       -3.0231376451
 O          4.5295945355       -2.9500031156        0.0455846680
 H          4.8196448539       -3.1540484285       -0.8594062589
 H          3.5540279665       -3.0862679220        0.0392970629
 O         -4.1294173278        1.4978827283       -2.4151509225
 H         -3.6422053603        0.6608670361       -2.5817759226
 H         -4.3633398648        1.8517588109       -3.2748563221
 O          1.8910629055       -2.9399383904        0.0004057988
 H          1.4070414357       -3.3984049746        0.6976138992
 H          1.5030408079       -3.2401487134       -0.8542382859
 O          1.8691225548       -1.3320480921        2.4697989730
 H          1.3458191857       -2.1501188584        2.4845573961
 H          2.7996419557       -1.5744964121        2.6407045410
 O         -2.8425189288       -0.8342577633       -2.8690530711
 H         -2.8895573669       -1.5375252851       -3.5174954884
 H         -3.0189143938       -1.2524350478       -1.9988691707
 O          4.5075981282       -0.3384030733       -0.4254474165
 H          5.4224802591       -0.0040345033       -0.3519958005
 H          4.5590484928       -1.3159146702       -0.3375374542
 O          1.7794083625        1.3044004857        3.0596851856
 H          1.7021535671        0.3365087094        2.9629891665
 H          2.7065706871        1.4770236391        2.8221444020
 O         -4.9934023817       -0.1942383453        2.0562708777
 H         -4.7112058403        0.4907629917        1.4205416669
 H         -5.8890468228        0.0475365808        2.3022425224
 O         -4.4392011802        1.9727031951        0.4110630194
 H         -4.2575483188        1.8035568329       -0.5230849079
 H         -3.6443066763        2.4094424283        0.7593412822
 O         -1.9194518604        2.7007535157        0.9797078551
 H         -1.7826493529        1.7365034762        0.8939815899
 H         -1.1930183238        3.0322525129        1.5263757218
 O          0.5799940073        3.4835809809        1.9389758486
 H          1.0436819327        2.7263428132        2.3499949809
 H          0.8279810067        4.2636546042        2.4357415049
 O          0.6925367633       -3.4291954153       -2.3023839373
 H          0.9831108933       -2.5766156017       -2.6609671408
 H         -0.2515235368       -3.3375241981       -2.0864531791
 O         -2.1089068074       -3.2129177496        1.3241300288
 H         -2.1771600877       -2.3598506394        1.8143231388
 H         -2.9750829693       -3.6178637313        1.4613439718
 O         -1.9284731741       -3.2262508103       -1.4224848603
 H         -1.9505420167       -3.1676774235       -0.4463220813
 H         -2.3796791066       -4.0404150343       -1.6491543849
 O         -1.0203713040        1.2799668672        3.4206089267
 H         -0.0548560966        1.2715987178        3.4593569005
 H         -1.3327860511        1.5256328942        4.2919206115
 O          6.8522038874        0.1289252816        2.3472133343
 H          7.6109451923       -0.1104014551        2.8777977911
 H          6.1661501003       -0.5488470064        2.5076029242
 O         -2.4187011029       -0.9973743730        2.7381259855
 H         -3.3297299975       -0.6934188813        2.6249990779
 H         -1.8864672555       -0.2054143800        2.9185420990
 O          0.3920256073       -3.6724340899        2.2319503770
 H          0.3883245129       -4.3812007907        2.8753566432
 H         -0.5286254719       -3.5759982758        1.9097483230
 O         -4.8664233923       -2.9999543048        1.4441868111
 H         -4.9733118358       -2.2007267144        1.9786338512
 H         -5.6947467974       -3.0881935430        0.9423565192
 O          3.9162032190        0.6131490481       -2.7994479948
 H          4.1797009463        0.1525925120       -1.9607090146
 H          4.7154825122        0.6236548812       -3.3323076199
 O         -7.0018613938       -2.5283494024       -0.1787219404
 H         -6.7860413228       -1.7235743096       -0.6719982905
 H         -7.9454776168       -2.5070231542       -0.0215225420
 O         -6.2190600287       -0.0232700604       -1.1396732084
 H         -6.6123677008        0.4906676933       -0.4091907084
 H         -5.7412313707        0.6070275045       -1.6953146506
 O         -7.0609892725        1.5680439561        0.9289960807
 H         -7.7280761114        2.2525140550        0.8758842266
 H         -6.1912636703        2.0021675768        0.8747604128
 O          6.9573387736        0.7586350135       -0.2954686683
 H          7.1293397977        0.5265866497        0.6349031705
 H          6.6639534381        1.6905640003       -0.2826157937
 O          4.9136794871       -2.5748728040       -2.6014266483
 H          5.4572096309       -1.7810719555       -2.7432756005
 H          4.1018410752       -2.4604053681       -3.0985267443
 O          6.5562124673       -0.3264089763       -2.7985292036
 H          7.3707790195       -0.6769488154       -3.1578335277
 H          6.7908412098        0.0593687669       -1.9357301211
 O          5.7182152198        3.1598919604       -0.2040978444
 H          5.9874519790        3.9437183992       -0.6812331675
 H          4.7973600529        2.9646028773       -0.4701234688
