  91
 
 H          1.5669320991        2.2950854288       -0.1886244794
 C          0.5244902818        2.0413078940       -0.3514913233
 H         -0.0943399202        2.8329599701        0.0569641167
 H          0.3462651313        1.9870633342       -1.4205234740
 C          0.1987174177        0.7028368405        0.3044985261
 H          0.2839309859        0.8059811391        1.3907482182
 C         -1.2433019443        0.2958292965       -0.0167341365
 H         -1.3284441001        0.0633155468       -1.0796654204
 H         -1.9043246829        1.1353049075        0.2072090577
 C          1.1791926233       -0.3626008920       -0.1686693522
 H          0.9482011188       -1.3317580901        0.2628283434
 H          2.1852106870       -0.0908942785        0.1268514937
 H          1.1440856792       -0.4436962591       -1.2503956409
 N         -1.7281090454       -0.8661959029        0.7348781189
 H         -1.1678690819       -1.6788773651        0.4934319686
 H         -1.5631949091       -0.7070082296        1.7298996193
 O         -2.6113928997        3.6074357158       -0.3434897141
 H         -2.7164884618        4.5397726795       -0.5357507048
 H         -2.1568956979        3.5428477380        0.5266769248
 O         -4.2495142416        0.2202629512       -2.2639917182
 H         -4.1334803246       -0.5166571713       -1.6187433840
 H         -4.8034604849       -0.1139398331       -2.9694358954
 O         -2.2337121435       -3.4100846458       -1.6275354407
 H         -1.6878709114       -3.6394062831       -0.8521578466
 H         -2.9944272248       -2.9207276589       -1.2832625844
 O         -2.5383589202        1.6238099466        3.4739901578
 H         -1.9473079208        0.8665949966        3.6105479952
 H         -3.3263584260        1.2572513945        3.0222995275
 O         -3.9968529026       -1.6575927413       -0.3805315943
 H         -3.1463234263       -1.3684995472        0.0749280536
 H         -4.6940320607       -1.5433748434        0.2705808758
 O         -0.5747159143       -2.0071828312       -3.1050364612
 H         -1.2211161048       -2.4921489445       -2.5289904130
 H         -0.6392280478       -2.4255293105       -3.9650790267
 O          2.0824010369       -2.5352154516       -2.5613159883
 H          1.1267191649       -2.3495592843       -2.5964722253
 H          2.4304746960       -2.1195638343       -3.3733115665
 O          4.1160117858       -1.7245204209       -0.8087153723
 H          3.4516801934       -1.9778596709       -1.4709750282
 H          4.2647985299       -0.7606772335       -0.9296039726
 O          2.5134615463       -0.8728762800       -4.6670684110
 H          1.6184440747       -0.6007134435       -4.8925245045
 H          2.8897586843       -0.1112454686       -4.1992153164
 O          4.2470190063        0.9384587534       -1.1365751052
 H          3.9353512157        1.4297051529       -0.3590567157
 H          3.6327357592        1.1480440978       -1.8573393982
 O          1.3107921176        3.1649460194        2.7879264966
 H          0.4328957715        3.2222510081        2.3760522817
 H          1.9420598193        2.9126588660        2.0916189937
 O         -1.4017500137        3.4853607666        2.0706888133
 H         -1.5605024202        4.2659296154        2.6041561453
 H         -1.8208305647        2.7325554191        2.5890830271
 O         -4.8835282650        2.0261162927       -0.2367127324
 H         -4.7852257467        1.4656461186       -1.0220552927
 H         -4.1415332712        2.6518437781       -0.2716433740
 O          0.0032952770        0.6504694059       -3.6833365361
 H         -0.7447728846        1.2170835686       -3.4129955763
 H         -0.2308745646       -0.2464317820       -3.3942970871
 O          1.4194212376        1.0488630488        4.3374069648
 H          1.5473043333        1.3213101260        5.2457392695
 H          1.3580703043        1.8828689151        3.7971100829
 O          3.4445117411        2.1810801227        1.2532951518
 H          4.2128942914        2.6769114691        1.5394309834
 H          3.4548366779        1.3431484004        1.7886962240
 O         -0.7083587370       -0.4668357755        3.5027032910
 H         -0.3132363606       -1.3462135683        3.3572123089
 H          0.0230387624        0.0665341092        3.8574653195
 O          2.4935980598        1.5156378328       -3.2310057352
 H          2.5449332877        2.3925120379       -3.6115596424
 H          1.5513040965        1.2357646572       -3.3017972189
 O         -0.5947625088       -3.9553729233        0.5054930985
 H         -0.8500102635       -4.8258475678        0.8145369822
 H          0.3189913541       -4.0660850148        0.1096119912
 O          0.6130972435       -2.7312615070        2.7221202340
 H          0.1021868963       -3.1553215963        2.0147374683
 H          1.5047641592       -2.6059549026        2.3712111036
 O          3.4242274434        0.0173828155        2.7570176410
 H          3.2182262062       -0.8305078966        2.3313472065
 H          2.7018592783        0.2112213413        3.3788412538
 O          3.1959904098       -2.4740489897        1.4685435029
 H          3.9210917828       -2.9301577029        1.8982902071
 H          3.5770332898       -2.1170218984        0.6015703732
 O          1.8513976542       -4.1765756469       -0.3417968317
 H          2.3613906571       -3.6646465667        0.3082366415
 H          2.0146927723       -3.7497957852       -1.1983696772
 O         -2.1475953490        2.0296640798       -2.7272584459
 H         -2.8814362542        1.4029407518       -2.6386995261
 H         -2.1721175445        2.5761348408       -1.9303221654
 O         -4.3061982667        0.4063275674        1.8281590166
 H         -3.5097408419        0.0170554628        1.4506252996
 H         -4.6429068418        1.0377508978        1.1551985477
