  117

 H         -0.5425054113       -1.1597996582        0.9180873617
 C         -0.6112510052       -0.5412956742        0.0100749166
 H         -0.5391308394       -1.1969144488       -0.8712436588
 C          0.5103658645        0.5037878324       -0.0094871817
 H          0.3911098458        1.1518924076        0.8600966302
 H          0.3944399222        1.1152669960       -0.9056411597
 O         -1.7891825169        0.2100258088       -0.0077307025
 H         -2.5646581753       -0.3620747644        0.0026734617
 N          1.8637421188       -0.1172780928        0.0059475176
 H          1.9871272136       -0.7237037745       -0.8163106198
 H          1.9839787964       -0.6890763233        0.8531041616
 H          2.5930828885        0.6072400314       -0.0077051357
 O          3.7290265441        1.7908987675        0.3058221036
 H          4.5590415849        1.2631046710        0.2205090109
 H          3.5059510674        1.7678433584        1.2697506880
 O          1.8316810199       -1.2578548072        2.4236829332
 H          0.9335091254       -1.2427941273        2.8072764591
 H          2.1003931682       -2.1960281117        2.4118845040
 O         -0.6993350205       -1.2933168818        3.3933411131
 H         -0.8371949424       -1.4299240673        4.3315874604
 H         -1.1487085156       -0.4417844392        3.1770215248
 O         -4.0175416095       -0.9792871911        2.4428473579
 H         -4.8360880967       -0.4834712775        2.2925134444
 H         -3.3720391945       -0.3446163376        2.7698259777
 O          0.7270392139       -3.7729208321       -0.2809377632
 H          0.0406174645       -3.6970177221        0.4212404342
 H          0.2550006548       -3.6515100157       -1.1163224628
 O          1.5512297030       -0.8318021949       -2.7421783357
 H          1.1010932038       -0.0082765164       -3.0065497049
 H          2.4409384420       -0.7722630950       -3.1012296528
 O         -1.0433916715       -3.5022606513        1.6883501640
 H         -0.9523597763       -2.8267050960        2.3763427566
 H         -1.8532799547       -3.2558252344        1.1974019967
 O         -3.1245119423       -2.4200475451        0.3519283412
 H         -3.4464913181       -1.8717534557        1.1030450787
 H         -3.8735159567       -3.0356278296        0.1837105305
 O         -1.8452851604        1.0574983980        2.9569438990
 H         -1.0631742141        1.6254505876        2.8829134183
 H         -2.5243069659        1.4743437934        2.3879000012
 O          3.0200988602       -2.4003234771       -0.7442402471
 H          2.2643631008       -3.0093003872       -0.6869856199
 H          3.4851431368       -2.4624509762        0.1164664897
 O         -4.4180553352        0.0460459853       -0.2555341490
 H         -4.5929019563        0.6001107869       -1.0442862160
 H         -5.1458219345       -0.6025908157       -0.2412602529
 O          0.5173537355        1.6256617605       -3.3468615495
 H          0.6168482429        2.0096217000       -4.2192575300
 H          1.0235430834        2.1961980667       -2.7277475931
 O          2.0411031559        2.9387934036       -1.5619288447
 H          1.4081143218        3.4657913280       -1.0354806974
 H          2.6748506663        2.6081263175       -0.9039272953
 O          3.0447946212        1.2314724306        2.7866372874
 H          2.5245260523        0.4109080552        2.7971369398
 H          3.9505268217        0.9139362493        2.9914389988
 O         -3.8158702444        2.0546950776        1.3735425077
 H         -3.9889647418        1.2727091142        0.7954493575
 H         -3.4307893090        2.7175200000        0.7885008394
 O         -2.7029409992       -1.5491519237       -2.2086108668
 H         -2.9119014855       -1.8596321514       -1.3020128769
 H         -1.9603772313       -2.0948437101       -2.5069881928
 O         -2.2762416666        1.1941371727       -2.8465061892
 H         -1.3496097776        1.2611297904       -3.1088093128
 H         -2.4042559764        0.2811158578       -2.5332590574
 O         -1.9868460940        2.8052686381       -0.6229902375
 H         -1.8527020278        1.9100987769       -0.2505053144
 H         -2.2049802966        2.6125228451       -1.5478719740
 O          0.2212179103        4.0746726635        0.0822424267
 H         -0.6262203840        3.6351192651       -0.1858928768
 H          0.0287326099        5.0105064738        0.1482631750
 O          5.1491852606       -1.3559018600       -1.9446106557
 H          4.3682638819       -1.8491676081       -1.6209604260
 H          4.7978173303       -0.6724267120       -2.5304777030
 O         -0.2752534059       -2.8559217641       -2.7569370436
 H          0.4238476215       -2.1726924135       -2.7989411951
 H         -0.1195392533       -3.4604961373       -3.4835426883
 O          5.9574811072        0.3776652840       -0.0824097324
 H          6.4631843817        1.0120991882       -0.5988007605
 H          5.6923084458       -0.3341552592       -0.7124488999
 O          0.4879733453        2.4944579118        2.4113754465
 H          1.3810609686        2.3491575818        2.7450392532
 H          0.5263974346        3.2024550448        1.7519060546
 O         -5.0325128922        1.4710689233       -2.4424693801
 H         -5.3443363752        0.7058838470       -2.9472851320
 H         -4.1462672267        1.6533434841       -2.7812821010
 O         -5.1640821652       -1.1777579926       -3.2451186859
 H         -4.2591127420       -1.3220081651       -2.8934608509
 H         -5.3043269602       -1.8442021678       -3.9158353246
 O         -5.3913400994       -3.7484385770        0.0714564033
 H         -5.9397175028       -3.0303528732       -0.2954930549
 H         -5.7532685189       -3.9437364401        0.9366380624
 O          5.3339251031       -0.1120352400        2.6326424027
 H          5.8240155711        0.1320108620        1.8386412388
 H          4.9725674904       -0.9924150646        2.4381444150
 O          3.8364622498        0.9407885766       -2.8872754716
 H          4.6215112603        1.4600785233       -2.6491970837
 H          3.1013416610        1.5296339153       -2.6879380497
 O         -6.5534907426       -1.5133911447       -0.8947979186
 H         -7.1101245946       -0.7236288826       -0.7340411888
 H         -6.2503027563       -1.4440403016       -1.8162888717
 O          2.1348136236       -3.9578189524        2.1422088454
 H          1.4860007980       -4.3783970030        2.7099788315
 H          1.8003021346       -4.0790579475        1.2411248636
 O          4.4624968026       -2.5066478124        1.5252340772
 H          5.2977769848       -2.7465776849        1.0704488917
 H          4.1404733962       -3.2883608801        1.9841965362
 O          6.6119305146       -2.8778584640       -0.0312139745
 H          7.4342547963       -2.4334847311        0.1811996037
 H          6.3117296824       -2.5301063025       -0.8811574739
 O         -7.3463795775        0.9891707037       -0.3963904806
 H         -6.9785464113        1.0229099631        0.5019916899
 H         -6.7716462385        1.5143441857       -0.9624113133
 O         -6.1500634163        0.9368584774        2.1629310032
 H         -6.6896943045        1.2020148705        2.9078756075
 H         -5.4359292639        1.5910030956        2.0649700225
 O          5.6290089499        2.6774564408       -1.6815817359
 H          5.9482178578        3.5012527103       -2.0492071735
 H          5.0341386412        2.8990626410       -0.9536381492
