  461

 H          0.4630927076        1.1941025328        0.8323452958
 C          0.5529035761        0.5095402430       -0.0251092083
 H          0.4633421182        1.0989800596       -0.9466436095
 C         -0.5779259333       -0.5149488604        0.0205351874
 H         -0.4518492549       -1.1270258237        0.9278134321
 H         -0.4840892691       -1.1748678656       -0.8448928487
 N         -1.8603253885        0.1647702477       -0.0623309403
 H         -2.6131021662       -0.5138473281       -0.0751527665
 H         -1.9956541839        0.7570092262        0.7508171931
 O          1.7808081026       -0.1833448060        0.0209869107
 H          2.5006908392        0.4507195085       -0.0567171281
 O          0.6167758917       -1.6981510294        2.6939393221
 H          0.8190804454       -2.3247775576        3.4184340061
 H          1.4716047340       -1.4912534695        2.2753245047
 O          2.7552452147        1.1680276269        2.7596787599
 H          2.4251832954        1.8843898269        2.1905953765
 H          2.0249807191        0.8578868771        3.3176914518
 O          3.1275316539       -1.9093214352        1.8206273181
 H          3.7911035963       -1.7104333272        1.1285664281
 H          3.6018743616       -1.7484566564        2.6554969532
 O          0.2961237921        4.1523136802        0.1430617979
 H          0.1862672579        3.6407539527       -0.6806907769
 H         -0.2256244756        3.7059263321        0.8318682307
 O          2.5652496398        3.0357543858        0.8452209304
 H          2.8136006903        2.6545904828       -0.0139044072
 H          1.7654624468        3.5727808204        0.6611663487
 O          1.6478877392        3.8062274487        3.7221499043
 H          2.0609251303        3.4884580593        4.5630672381
 H          2.3200216762        4.3431861311        3.2815478287
 O         -0.3714446084        2.6249712681        2.3237304536
 H          0.4095559506        2.9504724349        2.8111079536
 H         -1.1245017694        3.1233318491        2.7124654900
 O          2.9560227083       -4.4743149894        1.3357614697
 H          2.9457362638       -3.5023879577        1.5549144355
 H          2.3495036535       -4.5611913718        0.5602084719
 O          3.0659802595        1.7965522314       -1.5191544647
 H          3.7790564262        2.2808941357       -2.0089813936
 H          2.4115116002        1.5999671055       -2.2070965313
 O          2.0557366401       -2.1721624198       -1.7191349702
 H          2.0225503208       -1.4717478558       -1.0378130457
 H          2.9363827807       -2.1794071623       -2.1404962976
 O         -2.0174411326        1.5392652605       -2.2681781933
 H         -1.9738363847        1.0055950421       -1.4232652222
 H         -2.8709097972        1.9944563672       -2.2843620113
 O          1.6953329428        1.4303354995       -3.8328230756
 H          2.4155118930        0.8350950512       -4.1378080277
 H          0.8668327555        1.0269815140       -4.1838685895
 O         -0.7039968935        0.5534979571       -4.4008202352
 H         -1.2864796206        0.5409776965       -3.6236036527
 H         -0.8892701515       -0.2385579137       -4.9348683317
 O         -0.1057619262       -2.2468948079       -3.3128713100
 H          0.6179704780       -2.2286761924       -2.6595910905
 H          0.3045007865       -1.9618075188       -4.1584718668
 O         -1.0613845877       -4.5514290298       -1.3834641292
 H         -1.0632439739       -4.9274716383       -2.2768556717
 H         -1.4592687710       -5.1970413297       -0.7668640991
 O          1.5760669952       -4.6286926136       -0.9258960004
 H          1.8091515883       -3.7072393064       -1.1864349246
 H          0.5919815818       -4.5924193208       -0.9072095572
 O         -2.6809782116       -2.5284558879       -0.7966448965
 H         -2.0917288440       -3.1766094554       -1.2305885013
 H         -2.6487002923       -2.7884218536        0.1440602778
 O         -3.6274436366       -0.7662078084        2.2736527367
 H         -2.7665787375       -0.3880227621        2.5516002941
 H         -4.1692345751       -0.8027311252        3.0849807747
 O         -1.9871134710       -6.3126098685        0.4191204898
 H         -2.1330361031       -6.1542674883        1.3710816461
 H         -1.1567022541       -6.8261828221        0.3624268345
 O         -3.9781690800        2.0167133943       -4.2018177161
 H         -4.5738319272        2.6547937185       -4.6498496753
 H         -3.8222792341        1.2753045008       -4.8286490393
 O         -2.6967001649       -1.5712393498       -3.4449666841
 H         -3.1055211702       -2.4404804881       -3.2939593072
 H         -1.7408543733       -1.7282723050       -3.3223433307
 O         -1.2608717501        0.2031428437        3.0948427141
 H         -0.5564098961       -0.4760197284        3.0588748859
 H         -0.8471904529        1.0439972846        2.8082238462
 O         -4.4512657698        0.0398903749       -2.3838810378
 H         -3.7091213277       -0.5537449062       -2.6475215800
 H         -4.3401036708        0.8395654531       -2.9369806240
 O         -5.0287066090        0.2387319671        0.2154364762
 H         -4.5048633618       -0.3440071529        0.7917442856
 H         -4.7549731531        0.1157289344       -0.7180555016
 O         -5.2291834302       -2.7004102847       -0.9676570718
 H         -4.2328421262       -2.6622940939       -1.0312718228
 H         -5.5983629972       -2.2604010597       -1.7459952195
 O         -2.4766831665        3.9210381076       -0.1044024449
 H         -2.7096029373        4.6658415938        0.4829874731
 H         -2.1585089477        4.3150252881       -0.9398542635
 O         -4.1905796346        2.4166694502        1.4076432732
 H         -4.4603383778        1.6208222192        0.8935309678
 H         -3.3461894127        2.7269594561        1.0584571989
 O         -6.5156893889       -1.4119298304       -3.0621013991
 H         -7.3870447352       -0.9645819624       -3.0470901268
 H         -5.8210772888       -0.7471118513       -2.8295416048
 O          3.5309888857       -0.3654827149       -4.3127349304
 H          3.9878895455       -0.4810395833       -3.4533519172
 H          4.1194901780       -0.6999298661       -5.0161756831
 O          5.1437692802       -1.9701501560        0.1036323626
 H          5.1523969214       -2.9067853697       -0.1533436643
 H          4.9339794679       -1.4271797115       -0.6833912136
 O          6.5851865474       -1.7270101424       -3.6951055569
 H          7.0123108057       -1.6893561741       -2.8072384192
 H          5.6710355029       -2.0417276557       -3.4890703881
 O          4.8024753725        2.8237539308       -3.1720152160
 H          4.2546417716        3.3072928963       -3.8095741015
 H          5.2231722298        2.0947730754       -3.6603095163
 O          4.6118579512       -0.3298155761       -1.8996079412
 H          4.0072757656        0.3555150250       -1.5542298095
 H          5.4824761791        0.1139146623       -1.9082258597
 O          4.6900383370        0.7243796942        0.8638650353
 H          3.9728820670        0.7960425541        1.5133472599
 H          4.8440628096        1.6049679215        0.4904772851
 O         -6.9846519847        0.5850453355        2.0932472250
 H         -6.3073808665        0.4146687118        1.4212846278
 H         -7.0829231230        1.5584232202        2.1709070091
 O         -7.2906628767        1.7400140082       -4.7228050158
 H         -6.8681183750        1.0036306671       -5.2140926125
 H         -6.9782814611        1.6758042579       -3.7933439186
 O         -5.9576726554        4.1705856056        0.4746893512
 H         -6.2305667187        3.9397902808       -0.4271391729
 H         -5.2312773735        3.5653386020        0.7471921268
 O          0.1133299966        2.9759870944       -2.2421166619
 H         -0.7746684076        2.5260761744       -2.2759939552
 H          0.6887251497        2.4300961097       -2.7926090631
 O          6.0481924717        0.8572349921       -4.6250223131
 H          6.2014798627       -0.0558187069       -4.3155007593
 H          6.9082165880        1.2711325540       -4.7373781518
 O         -4.4107056428        2.9000936272       -1.6040923922
 H         -3.7479770839        3.2268344879       -0.9632126616
 H         -4.5707733976        3.6534707921       -2.2022440821
 O         -6.7102875583        1.6576584286       -2.1033790087
 H         -6.8415493989        0.8046947662       -1.6567124373
 H         -5.8242310835        1.9913401497       -1.8763850566
 O          1.0797200002        0.4796567502        4.7810511736
 H          1.9336999421        0.4657747800        5.2514347678
 H          0.6080601925       -0.3238343992        5.0809112164
 O          1.2086977996       -3.6452960985        4.4259257879
 H          2.1269315947       -3.7442000903        4.7520372092
 H          0.9623816772       -4.4871471945        4.0127418636
 O          2.7417112565        3.7202379727       -4.7838933926
 H          2.3072390698        2.8989866516       -4.4625808355
 H          2.3779733303        4.4424205018       -4.2517289174
 O         -4.7072552442        5.2742943642       -2.8873427470
 H         -4.7897881000        5.8400726557       -2.0889142695
 H         -3.7519291858        5.2679627922       -3.0646695910
 O          5.3324853431        3.1777837420       -0.3708918981
 H          5.9066658777        3.2598977309       -1.1583643695
 H          4.5513212561        3.7179268697       -0.5854224430
 O          4.2652390212       -2.8232591772       -3.0697663340
 H          4.4957258894       -3.7105661063       -2.7314643062
 H          3.8162904975       -3.0213331663       -3.9267117508
 O          1.4392166214       -1.5737669284       -5.3475797666
 H          2.1921242523       -1.1665999127       -4.8690778163
 H          1.1784523027       -0.8999705867       -5.9924013827
 O          4.7769611549       -1.7930928907        3.8886497817
 H          5.1029464992       -1.1315654945        4.5254282203
 H          5.5564715269       -2.1764275670        3.4449908944
 O         -2.8488853519       -3.2319708781        1.7606286419
 H         -3.5343505327       -3.9382365338        1.7372882356
 H         -3.2800991625       -2.3797038710        1.9863413088
 O         -3.7559508718       -4.0492767938       -3.1213975675
 H         -3.6236745049       -4.8439563163       -2.5582593338
 H         -4.6931996603       -4.0905763106       -3.3833806267
 O          7.2590159113        3.9977970085       -2.1106471814
 H          6.7243354716        4.8173075921       -2.1391588596
 H          7.9598707441        4.1941514718       -1.4649628615
 O          3.8842607743        1.6095677300       -6.4333444793
 H          4.6268113422        1.2531411427       -5.9295947364
 H          3.7036623032        2.4896381417       -6.0894313320
 O         -2.0011748019        4.9562599325       -2.5711208086
 H         -1.6608425711        4.3675124304       -3.2739610602
 H         -1.3462104645        5.6384692986       -2.3900937653
 O         -0.1902559855       -3.8609718189        1.2704618359
 H          0.1122265949       -3.0428437162        1.7095525752
 H         -1.1519202783       -3.8579161003        1.3354027157
 O         -6.0981104738       -3.2326856440        3.3387799281
 H         -6.3796311038       -2.7677605187        2.5179311150
 H         -5.5908692958       -2.5520790509        3.8284148290
 O          0.9529467886       -5.7427690736        2.6621243965
 H          1.8583294553       -5.5042667253        2.4116042995
 H          0.4087218388       -5.0824785760        2.1485248424
 O          1.3822985628        5.2203041244       -2.9425668242
 H          0.9475270748        5.9358165658       -2.4477287046
 H          0.8485653745        4.4271540842       -2.7324263577
 O         -1.5636049470        3.1601210092       -4.6031307024
 H         -2.5096262957        2.9247923839       -4.5176559268
 H         -1.1342063604        2.2861458473       -4.5501500017
 O         -2.3360503333        0.9143610132        5.4126825696
 H         -1.8282700434        0.6184845687        4.6208833037
 H         -3.1036525426        1.3883378908        5.0410838419
 O         -4.2136257638        2.2760993838        4.1189758845
 H         -5.0945971043        2.4371150155        4.5226009152
 H         -4.3333462693        2.2154391093        3.1531985256
 O          5.7624461147        6.1036026989       -1.4162417681
 H          6.0547454826        6.1368106982       -0.4981517878
 H          4.8399723673        5.7828448465       -1.3873626326
 O         -7.8121159418       -0.3484077568       -0.6528200842
 H         -7.3696326431       -0.8903276724        0.0360647177
 H         -8.2387217004        0.3857448017       -0.1942179622
 O         -7.3548430268        3.1893721448        2.4846279788
 H         -6.9633442259        3.5697419033        1.6656969377
 H         -8.3293059220        3.2771476339        2.3940015378
 O         -6.6540620078        2.6373374642        5.0659938748
 H         -7.0482043029        2.9094025007        4.2218211878
 H         -6.9600027818        1.7316573026        5.2180458878
 O         -4.9472606075       -1.1621946682        4.5462403996
 H         -5.6961647669       -0.6634385690        4.9105125004
 H         -4.3005311410       -1.3616983561        5.2521251684
 O         -2.2611130702        3.9977929535        3.5323085757
 H         -1.6613376202        4.3266353076        4.2531086037
 H         -2.9563343816        3.4357837346        3.9215663362
 O         -3.1789642122        5.7245630778        1.7800676686
 H         -2.7890101624        5.0997942584        2.4344656361
 H         -4.0893333033        5.8017996754        2.1074022847
 O         -0.1128064874        6.5034232851       -1.0908313546
 H         -0.0044493361        5.7161443357       -0.5116056825
 H          0.3277301694        7.2129163456       -0.6221402639
 O         -7.4283116895        0.0273635514        4.6886251598
 H         -7.2125129647        0.1220845452        3.7388434597
 H         -7.8613730591       -0.8561013143        4.7645376966
 O         -8.4307528886        2.3410100703       -0.1542683809
 H         -8.6367460332        3.2571958673        0.0845056213
 H         -7.7772900452        2.3820854745       -0.8813226559
 O          3.0656558047       -3.7039025734       -5.2501305934
 H          2.6861297570       -4.4436308211       -4.7310859619
 H          2.3271228618       -3.0990098118       -5.4479346638
 O         -6.7865206726       -2.1279692433        1.0302073887
 H         -6.0578182474       -2.3064336581        0.3937955060
 H         -7.4776147036       -2.7921826795        0.8093295684
 O         -9.4834828800       -0.2698738599        1.8190134506
 H         -8.5214447058       -0.0726404735        1.8392682805
 H         -9.8364468231        0.2315411723        2.5909455390
 O          3.9309823484        4.7805427596        2.3536335312
 H          3.5571122788        4.1825763645        1.6701980929
 H          4.2602644608        4.1544621599        3.0449567892
 O          7.2271255459       -0.7473493475        1.3082281339
 H          7.9414735297       -1.3888417938        1.4229233606
 H          6.4578417373       -1.1894136663        0.8986500946
 O          6.2672789095        1.0272302386        3.0122292736
 H          7.2102134901        0.8035937133        2.9904855843
 H          5.8391754924        0.6732606252        2.2034720947
 O         -0.1192535404       -1.7323760973        5.8074950504
 H          0.0911887944       -2.5360293443        5.2986822758
 H         -1.0792208574       -1.7660577426        5.9251761364
 O          4.5672392967        2.8086985113        3.9372923117
 H          5.3020397457        2.3036900896        3.5454814787
 H          3.7998476569        2.2297831587        3.7659125461
 O          1.2575366837        0.7877090443       -6.7161499018
 H          2.2234053342        0.8597208624       -6.7902269318
 H          0.9657961262        1.7190538862       -6.6572068085
 O          6.9414593864        0.9044316188       -1.7182072231
 H          7.0441145282        1.4596920999       -0.9333476064
 H          7.3879500533        1.3566143015       -2.4586711914
 O          5.1634457635       -4.6736270447       -0.1533474032
 H          4.3334185297       -4.7239510651        0.3629929827
 H          5.0032699387       -5.0935840488       -1.0135248343
 O         -3.8277114919       -6.1966637952       -1.5800060484
 H         -3.2545318350       -6.3443533561       -0.8086486536
 H         -4.7293951637       -6.1347157033       -1.2487181398
 O          2.0740971219       -5.5063093248       -3.5097550906
 H          2.0188378711       -5.2555259041       -2.5687047420
 H          1.1495036913       -5.4727664493       -3.8124152851
 O          6.8121391103       -3.2849252035        2.8678795499
 H          7.1907490010       -3.4116111356        1.9752307489
 H          6.2434686718       -4.0557538327        3.0275295381
 O         -7.3040599095        4.4243120246       -1.9282100128
 H         -6.6699352518        4.9208012520       -2.4510154156
 H         -7.9834133240        4.0725495486       -2.5504005148
 O         -0.4866005188       -4.8029280377       -4.0369972359
 H         -0.3581150237       -3.8530567206       -3.8056823815
 H         -1.0906825278       -4.8067865435       -4.7850604552
 O          8.1281187375        1.5786148145        0.6000141040
 H          7.6888166413        0.7223716837        0.8469330886
 H          7.9547235895        2.2037738718        1.3307362221
 O          7.9146188659        3.2900676194        2.7116805882
 H          7.5933475889        3.1356484574        3.6194624467
 H          7.3689169962        4.0049109852        2.3249970036
 O        -10.0206470192       -2.7903448978        2.3094852625
 H         -9.7899560315       -1.8472975590        2.1014757113
 H        -10.9725311850       -2.8194712117        2.3964867655
 O          6.3959203770        4.9774910991        1.2588723525
 H          5.5844915554        5.1809391165        1.7609317290
 H          6.1014566975        4.2497606875        0.6577760065
 O          3.3244957522        4.9679475035       -1.0557941659
 H          2.8832328687        5.4859330597       -0.3528913373
 H          2.7277374923        5.0163579628       -1.8245826592
 O          8.3905613509        2.1360037410       -3.6337303414
 H          9.1455847178        2.1621915445       -3.0147644820
 H          7.9043764533        2.9574309460       -3.4213366919
 O         -9.5183252669       -2.1650530024       -1.5967715297
 H         -9.5790985739       -2.0528238248       -2.5490039688
 H         -8.8665050550       -1.4807760277       -1.3072737567
 O         -8.8890446183       -0.2328900464       -3.4953980462
 H         -8.6132504452        0.3050695173       -4.2474941044
 H         -9.3790694973        0.3756965025       -2.9034090484
 O        -10.2615322307        1.4288845494       -1.8554783229
 H        -10.7510697860        0.7226538695       -1.3845635404
 H         -9.6101481986        1.7656790538       -1.1976644199
 O          4.8554675177       -5.4023450571       -2.6927316372
 H          4.1952406848       -5.7985499539       -3.2692155984
 H          5.6927568260       -5.2669886427       -3.1920047472
 O          9.8985988468        2.3100496558       -1.3998359663
 H          9.2404345283        2.0697176965       -0.7201783571
 H         10.0979591380        3.2350583858       -1.2294640261
 O          7.6264070947       -3.7210930595        0.2953168715
 H          7.5453176010       -2.8672817234       -0.1775900390
 H          6.7974665641       -4.2006002450        0.1251498658
 O          0.4672864501        3.3757837911       -6.4493500843
 H          1.2677131236        3.7394507234       -6.0466148924
 H         -0.2626876353        3.5341761352       -5.8314450816
 O         -4.8145978068       -5.0003105615        1.6631095773
 H         -5.4254593212       -4.5616488210        2.2748442322
 H         -5.3093371151       -5.2006231057        0.8537566013
 O         -3.5310998566       -0.1348808411       -5.6285352621
 H         -2.8346256572        0.1039162324       -6.2689760988
 H         -3.1324421155       -0.7690900580       -4.9990635858
 O         -1.6392537842       -3.5230341730        4.2031150882
 H         -2.4302837284       -3.7100306013        4.7306546867
 H         -1.9656614550       -3.1958218615        3.3506530376
 O         -9.1386759779        3.3863564737       -3.5372846517
 H         -9.7166521686        2.7782033091       -3.0585398434
 H         -8.6316234488        2.8425282160       -4.1578343550
 O         -6.1682815189       -0.5399014745       -5.6377754818
 H         -5.2137510019       -0.3687116072       -5.7563208705
 H         -6.2615007657       -0.9762647903       -4.7711282326
 O          0.5692555301       -7.1849742212        0.3579650452
 H          0.7502757490       -6.8497014624        1.2555313692
 H          1.0238617002       -6.5877442983       -0.2438514042
 O        -11.2076605990       -0.4983966344       -0.2407703508
 H        -10.8645179756       -1.2559027576       -0.7445948849
 H        -10.5882163090       -0.3982764907        0.5088302224
 O          4.9600651604       -1.8152803781       -6.0686275056
 H          5.8288822165       -2.1030626855       -5.7826885664
 H          4.3857125594       -2.5932216892       -6.0541005257
 O         -1.2372222953       -1.6922747808       -5.9220850257
 H         -1.1195594030       -1.6264549584       -6.8678398587
 H         -1.7384363500       -2.5220527085       -5.7571846061
 O          7.7614856032       -1.5874074827       -1.3289640228
 H          7.4998471001       -0.6518421450       -1.2332505957
 H          8.7174292432       -1.5939897341       -1.5657767187
 O          3.4104741321        0.4682859658        6.1616674485
 H          3.1285586200       -0.3554795635        6.6153156078
 H          4.3580846299        0.3707943797        5.9936844099
 O          2.1405500481        6.3968833429        0.9361313808
 H          1.2808785161        6.2261183220        1.3536965999
 H          2.8030352122        6.1719484645        1.6000354027
 O         -8.3921679401       -2.4405630021        4.5668255666
 H         -7.5959887151       -2.9076512138        4.2535644739
 H         -9.0659682411       -2.6205846894        3.8951585425
 O         -1.8469672501       -6.0054219352        3.1326924311
 H         -1.0359815845       -6.5046924927        3.2468025117
 H         -1.6663588520       -5.1280333051        3.5351224257
 O         -0.4040026035        4.7393158501        5.1662881905
 H          0.3848877117        4.5785180151        4.6084420554
 H         -0.3869791872        3.9714989469        5.7749923005
 O         -6.3066441858       -5.0949032957       -0.7233203126
 H         -7.1862162076       -4.9110896325       -0.3665881462
 H         -5.8675410013       -4.2184417817       -0.8367827839
 O         10.2245173120       -1.6992411007       -2.2173286886
 H         10.7993570522       -1.0230447430       -1.7878204437
 H         10.0160712295       -1.3431370128       -3.1035977125
 O         -0.3023931981        6.1149739795        2.2547933392
 H         -0.3366839086        6.0099050776        3.2085024173
 H         -1.2102733200        6.2304214340        1.9555564959
 O          9.5715085925       -2.0975923281        1.8085884917
 H          9.5864189500       -2.5660029765        2.6441664430
 H         10.0685144174       -2.6524570934        1.1612117966
 O          8.0044632448       -1.6916412577        4.8104767851
 H          8.4524049721       -0.9685065712        4.3455334411
 H          7.6489643917       -2.2888026402        4.1332806951
 O         10.4002755100        0.4413459463        1.5109676863
 H         10.1914839750       -0.5100375690        1.6172576123
 H          9.6124535808        0.8276869603        1.0675691776
 O          8.9018639216        0.6902464872        3.7420356394
 H          9.6219757545        0.7090409895        3.0854105677
 H          8.9936453126        1.4514244805        4.3171396490
 O          8.9707714828        4.6549702053       -0.0851292575
 H          8.2578158314        5.0440686231        0.4333421680
 H          9.6023019998        4.2982938174        0.5689454935
 O          9.0956538211       -0.5650635340       -4.3844771433
 H          8.9477675458        0.3815997943       -4.2770164706
 H          8.2304070863       -0.9929637566       -4.3832915526
 O          7.1265686388       -4.5090363766       -3.7470609252
 H          7.8880543114       -4.6284467008       -3.1511926287
 H          7.0268560023       -3.5503999831       -3.8553277642
 O         -6.4584906888       -4.1333808615       -3.5152132418
 H         -6.6732137882       -3.2089095013       -3.3136526021
 H         -6.6376389443       -4.6572508524       -2.7236103434
 O          9.1634727316       -4.3432478198       -1.8818541918
 H          8.6076210830       -4.2008733322       -1.0897225252
 H          9.5046565591       -3.4787154851       -2.1516666755
 O         -8.6187580940       -3.8994450682        0.2657255259
 H         -9.2057250014       -3.7490327691        1.0276235736
 H         -9.0306984917       -3.4335968527       -0.4857021659
 O         -2.6762544197       -3.9113093156       -5.5648990581
 H         -2.9744852186       -4.0398633116       -4.6394204804
 H         -3.5049619201       -3.7068172704       -6.0260942290
 O          3.7350182943       -3.8181609911        5.2238031586
 H          4.1702415319       -4.5721159927        4.8126705278
 H          4.1203220086       -3.0310746589        4.7716644681
 O         -9.9286405198        1.1548935216        3.9763881987
 H         -9.1006725176        0.9463611629        4.4390945582
 H         -9.9115065169        2.0819005160        3.7155326080
 O          4.9148957411       -5.2906511474        3.0762675655
 H          4.2107092916       -4.9798274155        2.4792598105
 H          5.2263360939       -6.1213090323        2.7175255506
 O         -9.9706154574        3.4848184068        2.2496207712
 H        -10.5862762527        2.9313165834        1.7264064227
 H         -9.9147581017        4.3133734592        1.7612531442
 O         11.5832943815        0.1864449980       -0.9556840918
 H         11.1769193607        1.0031427163       -1.2881274280
 H         11.4120343268        0.2016106783        0.0015541438
 O         -5.2795490361       -3.2297718447       -6.0098799439
 H         -5.7945249345       -3.6849135847       -5.3354511456
 H         -5.6835676730       -2.3605467010       -6.1341475781
 O         -0.1918791003        2.3142784246        6.3037531361
 H          0.3107966991        1.7249369315        5.6980011939
 H         -1.0786853184        1.9258027424        6.2963657395
 O         -8.6351138282        5.0987446369        0.3243919884
 H         -7.9835926751        5.5645714258        0.8531585828
 H         -8.2576464683        5.0753163961       -0.5762804995
 O          2.5314699245        3.0734555368        6.1053179564
 H          2.9762318142        2.2117445366        6.1664536783
 H          1.6995911332        2.9755340252        6.5797822527
 O          6.0466288815        0.0379919424        5.4369717866
 H          6.0858114288        0.4502389869        4.5416870567
 H          6.7874543393       -0.6031512105        5.4625688094
 O         -5.4691564266        5.2809845080        3.2754484673
 H         -5.1846309322        5.1073624110        4.1738148465
 H         -6.1117488063        4.5934731121        3.0605578705
 O          7.0296776485        2.7707171871        5.2739145145
 H          6.8887125017        1.8749069267        5.6100051782
 H          6.1425211661        3.1477523336        5.2153856611
 O        -11.6696706842        2.2291677460        0.5743297626
 H        -11.8535037891        1.2840264458        0.5608476545
 H        -11.4922145036        2.4779725186       -0.3386816590
 O         -4.8387522644        6.4500165104       -0.4858372642
 H         -4.0505602643        6.6474540938        0.0258331109
 H         -5.2847987411        5.7201107603       -0.0137272229
 O          2.4256793816       -1.8663050894        6.9765131695
 H          1.4985056930       -1.8642117872        6.6917399444
 H          2.8477295628       -2.6198282879        6.5491527560
 O         -1.5534976200        0.9161753768       -7.1723407346
 H         -0.6229143826        0.6713933322       -7.0788553640
 H         -1.5735189064        1.8724330848       -7.0971687076
 O         10.4608050166        3.3874632544        1.8019010680
 H         10.7782484927        2.4840859432        1.7153905228
 H          9.6331938565        3.3505171443        2.3167771638
 O         -5.5906605524        3.8360265358       -5.2114611370
 H         -5.5467760318        4.4860880687       -4.5011453912
 H         -6.3959715792        3.3006909478       -5.1043559266
 O         -2.9242561212       -1.4520743147        6.2702252138
 H         -3.0233572638       -1.4968088431        7.2186888186
 H         -2.6832443952       -0.5135177670        6.0378523548
 O         -4.0238878714       -4.7322883507        4.7424248437
 H         -3.6958595629       -5.4266528164        4.1596213211
 H         -4.8570128980       -4.4310465281        4.3683598085
 O         11.0219409982       -3.4265944002        0.0435851781
 H         10.5192358280       -4.0422255760       -0.5121457552
 H         11.3921354903       -2.7740414961       -0.5578829616
