  311

 H          0.4630927076        1.1941025328        0.8323452959
 C          0.5529035761        0.5095402430       -0.0251092077
 H          0.4633421182        1.0989800596       -0.9466436098
 C         -0.5779259333       -0.5149488604        0.0205351875
 H         -0.4518492549       -1.1270258237        0.9278134321
 H         -0.4840892692       -1.1748678656       -0.8448928486
 N         -1.8603253885        0.1647702475       -0.0623309409
 H         -2.6131021665       -0.5138473280       -0.0751527665
 H         -1.9956541839        0.7570092262        0.7508171932
 O          1.7808081027       -0.1833448059        0.0209869107
 H          2.5006908393        0.4507195085       -0.0567171281
 O         -2.5374482058       -1.2678573435       -2.6261821207
 H         -2.8959138195       -0.7697194765       -3.3844215587
 H         -3.2393456207       -1.3495575951       -1.9647150920
 O         -0.0722803181       -0.7026061386       -3.3654041559
 H         -0.2172539634       -0.6682237962       -4.3286060149
 H         -0.9517244345       -0.7923407041       -2.9704444189
 O          1.6362637065       -1.9279309351       -1.9267199291
 H          1.7285731845       -1.2204278500       -1.2438920018
 H          1.0240622758       -1.5250847131       -2.6010560282
 O         -0.1848666066       -5.3331328103       -0.9432764597
 H          0.5323050851       -5.5690791988       -1.5439143366
 H         -0.7746916075       -4.7682787922       -1.4892895401
 O          1.1987184597       -3.4537605298        0.3368285858
 H          0.6129451879       -4.1667197800        0.0143994369
 H          1.3226790015       -2.8609252446       -0.4187289024
 O         -0.1874014411       -2.4290014894        2.5618373489
 H          0.0044655246       -3.2955004094        2.9757235942
 H         -0.4201259436       -1.8004295739        3.2586294267
 O         -2.3525789846       -3.2020363926        1.3620950400
 H         -1.5104188797       -2.8170528443        1.7172918947
 H         -2.1374990795       -4.1521579395        1.2492289720
 O          1.7930348180       -4.5335338071       -2.7996201363
 H          1.8354716800       -4.3364260832       -3.7440767399
 H          1.6160104357       -3.6599843669       -2.4085782516
 O          4.2351172486       -4.6763485945       -1.6725285897
 H          4.0671236014       -4.8674507868       -0.7373101644
 H          3.3849866570       -4.8394031382       -2.1321885507
 O         -3.9561419523       -2.1363297466       -0.4899530826
 H         -3.2907602393       -2.5828455032        0.0679039205
 H         -4.7542205759       -2.0823491024        0.0727843939
 O          4.1826633254       -2.0977921573       -2.2692241736
 H          4.3090871826       -3.0529337199       -2.0602851167
 H          3.2021345731       -1.9719817682       -2.3138884042
 O          3.2974242102        2.4315041183        1.0142721265
 H          3.5461461588        3.1727781635        1.5990493764
 H          2.8460741088        1.7967251881        1.6159548575
 O          3.1338634175        1.3990074698       -1.7609452360
 H          3.3344904551        2.3292380665       -1.5393991435
 H          2.3336968274        1.4444674079       -2.3167147155
 O         -3.3250818264       -0.5220569554        2.2862900406
 H         -3.2733357287       -1.4520371985        2.0526663823
 H         -3.8631038616       -0.4367168784        3.0991400801
 O         -4.7506602985        1.2088666124        0.7623316607
 H         -4.6053445081        1.1324228071       -0.2037861566
 H         -4.0807140559        0.6632953575        1.2124970844
 O          1.2642090438       -0.7103226063        5.3844581355
 H          0.8283136898       -0.5157994083        4.5440690077
 H          2.0551510558       -1.2429709903        5.1819391353
 O         -5.0620309774        3.7165238728        1.5363843069
 H         -5.9756728736        3.8133307834        1.2361983475
 H         -4.8028362470        2.8286213326        1.1940969477
 O         -4.3086376167        1.2176117896       -1.8836281355
 H         -4.6676434426        0.4499709273       -2.3578483284
 H         -3.3760103421        1.3441190594       -2.1644373487
 O          0.9068516592        1.8472079114       -3.3070169112
 H          1.1436779670        1.1870996079       -3.9860399084
 H         -0.0159789093        1.6407024852       -3.0553233844
 O         -1.6819914075        1.6604001011       -2.2351790370
 H         -1.6624039646        0.9884711881       -1.4990902799
 H         -1.6699192786        2.4980508128       -1.7498544522
 O         -1.6903955576        3.2511770629       -0.0022534534
 H         -0.7603855474        3.5070458011        0.0866787983
 H         -1.9338606104        2.8262230654        0.8416297358
 O         -2.1295654438        1.9811353706        2.3385932148
 H         -2.8773973445        2.2009837222        2.9096447486
 H         -1.3137625453        2.2589210843        2.8055360002
 O         -1.0985850270       -0.2205843950        3.8918728689
 H         -1.1883098766        0.4906856212        4.5737146506
 H         -1.6320509540        0.0783619104        3.1352105733
 O          4.3186786324       -1.2898732346        0.2992519442
 H          4.7801531896       -0.4238014006        0.2799767449
 H          4.1958615065       -1.5551086691       -0.6301070532
 O          2.1796618390        0.8091849316        2.7886425374
 H          3.0217075780        0.8153348778        3.2876123943
 H          2.0968874710       -0.1106612798        2.4507414696
 O          3.5517662478        4.0868104291       -1.6625067125
 H          2.7006695793        4.4988028454       -1.8595734007
 H          3.9964849024        4.0480954972       -2.5337405590
 O         -5.3605874763        3.6740325781       -2.0285097863
 H         -5.0101202986        2.7566101437       -1.9926008495
 H         -4.7195519526        4.2219261769       -1.5199896908
 O          5.5097258759       -3.2870360351        1.5433387621
 H          4.8368877233       -3.9723166174        1.3605094732
 H          5.1188778392       -2.4739576928        1.1487096693
 O          5.4948189297        1.0590444867        0.2574400392
 H          4.7436239619        1.6226288345        0.5338824018
 H          5.9521927056        1.5517443500       -0.4478902644
 O          6.5894533170       -0.9289388035       -1.7108580750
 H          6.8419973718       -1.6185690958       -1.0569360370
 H          5.6556252478       -1.0546287096       -1.9266530012
 O          2.4187061365       -1.7220476546        2.1258255620
 H          1.6444645433       -2.2014244741        1.7879899247
 H          3.0452938032       -1.6077981422        1.3857264260
 O         -5.7327105485       -2.1917466832        1.4958389712
 H         -6.0952230385       -1.3564888355        1.8585088232
 H         -5.2356892576       -2.6188902966        2.2149203529
 O         -5.3072913564       -1.0410356390       -3.1343047864
 H         -4.8864813718       -1.6786142540       -3.7453583049
 H         -5.8777450569       -1.5591122400       -2.5430062801
 O         -6.6716384178        0.1771399342        2.3011498128
 H         -7.5636192045        0.1275733026        1.8747678087
 H         -6.0780101756        0.6283603642        1.6570476032
 O          1.0368900107        3.6029043193        0.0570434472
 H          1.8970611871        3.1645844567        0.1926638883
 H          1.0317569880        3.9782376684       -0.8443918610
 O         -6.9760781285        0.4453246884       -0.8857974927
 H         -7.3660185678        0.6259481039       -1.7743639405
 H         -6.6754625197       -0.4742273943       -0.9116642241
 O          5.2848833227        1.2558359814       -3.3243296484
 H          5.8708796796        1.7792344692       -2.7481082043
 H          4.4825044011        1.1128643450       -2.7690141668
 O          7.4947173605       -2.9104074404       -0.1948518577
 H          7.3856082380       -3.6036054478       -0.8904880707
 H          6.8859340048       -3.1459412925        0.5360355094
 O         -8.3376633184        0.8783142202       -3.1089972025
 H         -8.8163594083        0.0265901695       -3.1369324093
 H         -8.9410675484        1.5257992245       -2.7064581613
 O          4.6716531422        0.8186717832        3.7222315706
 H          5.2503415828        1.3242068511        3.1235298692
 H          5.0704899397       -0.0575002796        3.8185802991
 O          5.8483477258       -1.8403998094        3.8052025620
 H          6.4539389971       -1.2123852733        3.3698417744
 H          5.7359575308       -2.5255150088        3.1192967540
 O         -4.9075306017        0.0400025126        4.3901919018
 H         -4.6879633382        0.9859456781        4.4292050489
 H         -5.7022651544       -0.0066620087        3.8366990357
 O          0.2521583864        2.5718870800        3.4207637310
 H          0.5264969178        3.4557436399        3.0827285129
 H          0.8887241431        1.9219204099        3.0714036705
 O         -4.4401243902        2.7324442205        3.9396394760
 H         -3.8013358101        3.3066505840        4.3831951231
 H         -4.7001352592        3.2011836285        3.1157913992
 O         -4.0820505061       -3.3423514686        3.3881794205
 H         -3.3960225136       -3.3889387770        2.6866457866
 H         -3.6503855236       -2.8602282705        4.1269407879
 O          6.9894321162       -4.4892478341       -2.2394925211
 H          6.0426599354       -4.6863091461       -2.1876988904
 H          7.1210882299       -3.8973864970       -2.9949797147
 O          3.3739246406       -4.8084202305        0.9764277148
 H          3.2008617112       -5.0250952278        1.9063828881
 H          2.5911968466       -4.2615755141        0.7234216026
 O         -1.6501568811       -3.7902992672       -2.5575452451
 H         -2.5229798941       -4.2122046228       -2.4881053758
 H         -1.8504513862       -2.8308911838       -2.5155882094
 O          1.0504343592        4.8806750704        2.3806348799
 H          1.9972784592        4.8958033219        2.5960699567
 H          0.9963575192        4.5818999379        1.4454698554
 O         -3.1401412722        0.3971067255       -4.6979559829
 H         -4.0341598123        0.5329022643       -5.0258784621
 H         -2.7833204454        1.2815516965       -4.4774884348
 O         -5.0381953091        3.4381496956       -4.6931253767
 H         -5.4618276297        2.5651574738       -4.8169367178
 H         -5.2853364753        3.7077218179       -3.7879437078
 O         -4.2798025445       -4.2149237064       -2.1931995008
 H         -4.9530543544       -4.7759756302       -1.7951570578
 H         -4.2434218485       -3.4210480807       -1.6134314527
 O          4.7814060930       -2.3442214353       -4.9032120527
 H          5.7462730430       -2.4515862386       -4.8362463975
 H          4.5090499296       -2.1860527864       -3.9773307612
 O          1.9513742317       -2.7445838880       -4.9387930979
 H          2.8684103889       -2.8257688536       -5.2252590085
 H          1.7949327212       -1.7821390814       -4.8817235877
 O          7.3293120309       -2.2680181284       -3.9462879313
 H          7.0885321539       -1.7699242297       -3.1340928682
 H          7.8401269603       -1.6152061824       -4.4416892021
 O          4.3508697726        0.1903061430       -5.7245601385
 H          4.7678603265        0.6247038097       -4.9674586650
 H          4.5535753335       -0.7605121417       -5.6051214434
 O         -4.0771002663       -2.9288603815       -4.6117377614
 H         -3.1769807445       -2.9971124079       -4.9413151985
 H         -4.1636885951       -3.5704798130       -3.8863672594
 O          1.7932494675        0.0284542482       -5.1722626604
 H          2.7239955208        0.1610555586       -5.4808228567
 H          1.2078908581        0.0328311956       -5.9340711386
 O         -0.9051182726       -0.6603046274       -5.9415336547
 H         -0.9997783303       -1.6272883468       -5.8907705604
 H         -1.7634956926       -0.2948440312       -5.6710592757
 O         -6.1293991903        0.9578713916       -4.7516963394
 H         -7.0277976912        1.1408330134       -4.4422480880
 H         -5.8592178166        0.2015699261       -4.1964141405
 O          0.9431032714        4.4085818571       -2.5216139943
 H          0.0349734049        4.7109173713       -2.6616624209
 H          0.9772083958        3.5182558077       -2.9245859737
 O          3.6756084256        4.3834480337        2.8432634780
 H          4.4375145446        4.9609901896        2.8149253478
 H          3.6997572760        3.9019290418        3.7164820253
 O          7.0465955121       -0.0504604397        2.2487355476
 H          7.9940546271        0.0022749646        2.0672170803
 H          6.5783950921        0.3368287258        1.4889493996
 O          8.4070889792        2.2540325859        0.9789614430
 H          8.4203553087        1.7846796580        0.1211953992
 H          9.0680928420        1.8026580781        1.5125959175
 O         -7.1494013419        3.0937481999       -0.1899768481
 H         -6.6065953373        3.4840722559       -0.9148570040
 H         -6.9476242430        2.1443302800       -0.2582608219
 O          3.2717833034       -2.3220860855        4.4974917638
 H          2.9745664406       -2.0707035174        3.5872956858
 H          4.2234336494       -2.1277299333        4.5107076593
 O         -3.6406724530        4.9609948645       -0.4744665164
 H         -4.1509846591        4.8752108048        0.3452620320
 H         -2.8728568641        4.3605551872       -0.3304830236
 O         -1.7988059025        4.8735401135       -2.6978285414
 H         -2.6345136628        5.1255762719       -2.2923698876
 H         -2.0130775118        4.1570390894       -3.3313538455
 O         -8.9040318338        0.2741135601        0.9293838466
 H         -9.2051580999        1.1645894331        1.2142039546
 H         -8.3242224899        0.4167915087        0.1452735633
 O         -6.8132898928       -2.3153718180       -1.2475209700
 H         -6.4661170725       -3.1631582811       -0.9200375315
 H         -7.7286640240       -2.2722194056       -0.9026700810
 O         -2.4973629173        3.0435440694       -4.5760993713
 H         -2.1117106876        3.2769089072       -5.4196371204
 H         -3.4809708319        3.2441306516       -4.6459210091
 O         -9.2812696609       -2.2091999817       -0.1369874241
 H         -9.0163828290       -2.8507277193        0.5509649599
 H         -9.3649422448       -1.3571647478        0.3222901545
 O          2.9413228040       -4.8283577471        3.6955105655
 H          3.0225581618       -3.9096696332        4.0584007701
 H          3.6524295207       -5.3252264773        4.0948558789
 O          6.6511700525        2.7488098195       -1.5407630107
 H          7.6079859558        2.7778581721       -1.5794398774
 H          6.3547087302        3.5198652982       -0.9954654718
 O         -2.1390472340        4.0742255153        4.4842112426
 H         -1.6352025295        4.6388801043        5.0683753894
 H         -2.0486822999        4.4902469130        3.5951247277
 O          5.5966752668        4.4920491955        0.1371047825
 H          4.7372122189        4.4239462952       -0.3104949541
 H          5.5805675142        3.9099537340        0.9133871699
 O         -0.3359967097       -3.0363536066        5.5810069116
 H          0.2173419681       -2.2475644649        5.7075644054
 H         -1.2487879803       -2.7486307543        5.6960085179
 O         -2.8602890091       -1.7668547147        5.1655005655
 H         -2.1955807134       -1.2147318652        4.6865276137
 H         -3.5589413561       -1.1519048030        5.4116283977
 O          8.6045582903        0.7733654547       -1.3172064491
 H          7.7556238511        0.3011371925       -1.4287179683
 H          9.2232423903        0.0773499040       -1.0505158354
 O         -1.4898454351       -5.7055535423        1.4851908491
 H         -0.9620382934       -5.8155074424        0.6804509557
 H         -0.8740516926       -5.5723364126        2.2239884506
 O         -9.3420885544       -1.6241409901       -2.8652139781
 H         -9.5633626358       -1.8344070348       -1.9452795164
 H         -8.6272324913       -2.2167925921       -3.1085453783
 O          9.7733200538       -1.5625893551       -0.3601765832
 H          8.9402282767       -2.0778950368       -0.2466484509
 H         10.3504826704       -2.1031843195       -0.9000751404
 O         -0.8481077251       -3.2939790366       -5.1598541849
 H          0.1169314523       -3.2512411418       -5.2046612867
 H         -1.0502937012       -3.5616948919       -4.2459452389
 O          0.1791011432       -4.8569137804        3.6263249908
 H          1.1395414007       -4.9950578230        3.6429897373
 H         -0.0442561640       -4.4385506468        4.4783562019
 O         -7.9510675346       -3.6905584315        1.6843034955
 H         -7.1386589636       -3.1538753739        1.5438974144
 H         -8.0799193435       -3.6593600945        2.6358581702
 O         -4.3404722869       -5.6255003000        1.6390373720
 H         -3.4127188469       -5.8809385418        1.5591604558
 H         -4.4161099546       -5.1075068399        2.4478619059
 O          6.1472877216        2.8075176529        2.3491719543
 H          6.9375279228        2.5441297340        1.8242325352
 H          6.4855027178        3.2494772252        3.1278890723
 O         -9.1708949877        2.8188070008        1.6911571659
 H         -8.7399711393        2.8170864674        2.5605645769
 H         -8.5053331604        3.1741833182        1.0841072631
 O         -6.1428097683       -4.7917588243       -0.2231775343
 H         -5.4504471904       -5.0954598242        0.3945965472
 H         -6.9565324088       -4.8157316757        0.2936392738
 O         -9.5799689927        2.6061070620       -1.4183881360
 H        -10.1866335434        2.5143726543       -0.6817867539
 H         -8.7460804986        2.9397270014       -1.0405683752
 O          3.7534183863        3.0204567058        5.0763624258
 H          4.1622246853        2.1877808121        4.7913811608
 H          2.8951157570        2.7665704621        5.4727901168
 O          1.3233684341        2.0349948714        5.8452366733
 H          1.4173699548        1.0661764051        5.8311095114
 H          0.9256490424        2.2785591527        4.9833967336
 O         -7.3397300569        2.4529123191        3.7269266050
 H         -6.5065300488        2.7842309177        4.0760668209
 H         -7.1281127167        1.5983048030        3.3139760605
 O         -6.7654504203       -2.7570677998        4.1735309201
 H         -5.8910751360       -3.1582064345        4.0950397117
 H         -6.6680242561       -2.0071866396        4.7616874832
 O          8.0115594001        0.3989684861       -4.1471852430
 H          8.4295975974        0.6680217023       -3.3197966067
 H          7.0839687644        0.6476588093       -4.0603411317
 O          4.2683265554        3.6170617284       -4.2147150907
 H          4.7119956768        2.7571294687       -4.0798963742
 H          3.5096919495        3.4478457253       -4.7744927457
 O         -1.6283590290        5.4298233472        2.2861768269
 H         -0.6678487455        5.4535332799        2.4042444278
 H         -1.7460306409        5.5591393341        1.3364459847
 O         -1.4894896026        1.6558636309        5.6918053577
 H         -0.6338952699        1.8164548170        6.1130886610
 H         -1.7230250462        2.4781012012        5.2301910010
 O         -0.6437732485        5.9297629294       -0.2883240727
 H         -0.0957413972        6.6640034760       -0.5589101371
 H         -1.0669354262        5.5836239786       -1.0841357972
 O          9.8136421320       -0.0274365261        1.8913226073
 H         10.2183823875       -0.5275602074        2.5995818960
 H          9.8977326919       -0.5656111772        1.0830499974
