  91

 H         -0.0000000000        0.0000000000       -0.0000000000
 O         -0.1979293979        0.0451420877        1.0184879700
 H          0.5655948881       -0.3038863610        1.5802426032
 H         -0.3564678955        1.0418396417        1.2686882709
 O         -0.4363389294        2.4402118224        1.7855294709
 H          0.4430019808        2.7843058957        2.0112249628
 H         -0.8207076476        3.0873371122        1.1604724511
 O          1.4900525935       -0.9463633328        2.7105019796
 H          1.1649394471       -1.7542208124        3.1645675777
 H          1.5032483476       -0.2123462951        3.3462240327
 O         -2.7368820140       -1.0312250095        0.0032907224
 H         -2.5062073779       -1.7526835361       -0.5986511063
 H         -2.3859772448       -1.2661986127        0.8822621973
 O         -1.7746662568        1.5183034784       -0.4441811210
 H         -2.5245412466        2.1257539156       -0.3676839572
 H         -2.1395778234        0.6197235950       -0.4184634122
 O          0.1489651628       -0.1651154242       -1.4729124252
 H          0.3763199307       -1.0733985055       -1.7334203817
 H         -0.7343649882       -0.0080501890       -1.8899873183
 O         -0.0089231764       -3.1323492113        0.9163565952
 H          0.7400602797       -2.6480006991        0.5037758241
 H         -0.5261979959       -2.4863559484        1.4400549196
 O          2.0874166487       -1.9307194679       -0.3115916565
 H          2.0620666687       -0.9903549910       -0.0043155802
 H          2.7860695402       -2.3113280761        0.2555176732
 O          1.3258661144        1.3885781739        4.0636446270
 H          1.7125000053        2.0428288653        3.4577477140
 H          1.5883666640        1.6348707795        4.9505169094
 O          2.0875229096        3.3858605302        2.2565508208
 H          2.2447346461        3.2918059448        1.2946128687
 H          2.1227496807        4.3243449109        2.4445626199
 O         -1.7044698939       -1.7065746456        2.4498702361
 H         -1.5589676081       -0.8299370334        2.8991147200
 H         -2.0096516401       -2.3073935213        3.1297611382
 O         -1.4339291287        0.6051298950        3.6418126952
 H         -1.9141821002        1.2625667120        3.1096791863
 H         -0.5472880511        0.9663706404        3.7753012637
 O          2.1461560298        2.9745294186       -0.3992793374
 H          1.3667586337        2.9873184241       -0.9967468651
 H          2.9255516087        2.7609898035       -0.9432809062
 O          2.3741126095        0.5019337084        0.6439629400
 H          3.3374933726        0.4132335827        0.6973590586
 H          2.2053659863        1.3786031472        0.2517171751
 O         -0.0157260541        2.7483290627       -1.9783259184
 H          0.3722914579        2.1477648401       -2.6398974303
 H         -0.5712376791        2.1724500734       -1.3987734558
 O         -1.6935346420       -3.4116539322       -1.0668815767
 H         -2.1523739414       -4.2501784000       -1.1102930981
 H         -1.1051674163       -3.4343180004       -0.2662934239
 O          0.4544673396       -2.6895214781       -2.5033831951
 H          1.1913391736       -2.9802124747       -1.9565444221
 H         -0.3668275566       -3.0367651948       -2.0977303021
 O         -2.1461938173        0.0527001022       -2.7796063952
 H         -1.9042952716       -0.3206700138       -3.6323365091
 H         -2.4218032551        0.9767838247       -2.9376147917
 O          4.1910619324        1.8064684697       -1.7186909807
 H          4.5793852040        2.2099194775       -2.4930161766
 H          3.7523297986        0.9697312608       -2.0340759312
 O          2.9900553130       -0.3675639215       -2.5483822871
 H          2.2140094904        0.0587694782       -2.9490131479
 H          2.6582092335       -0.9711290369       -1.8666848649
 O         -1.1417671548        4.4026583731        0.0648224880
 H         -0.6824228746        4.1701077910       -0.7500879326
 H         -2.0809261830        4.4359769586       -0.1380530142
 O          1.0512377042        1.1095005567       -3.9141484729
 H          0.4700973256        0.3610748534       -4.1683042880
 H          1.2957940673        1.5613189673       -4.7221097258
 O         -3.8448480641        3.2719970966       -0.1462651253
 H         -3.6921746446        3.2376820470        0.8134429976
 H         -4.5496607782        2.6323541268       -0.3018527759
 O         -4.7748742378        0.6201465254        0.4629124979
 H         -4.0778363291       -0.0077908800        0.1774139006
 H         -5.5725946128        0.1010376223        0.5560491779
 O         -2.6076227057        2.7330906297       -3.0518126971
 H         -3.1862956289        3.1305535672       -2.3962094321
 H         -1.7020449836        3.0010704633       -2.8262578571
 O         -3.4486225531        2.0944328586        2.3428301897
 H         -3.9538769195        2.1858866888        3.1504064971
 H         -3.9140658224        1.4433602947        1.7830315534
 O         -0.3138410349       -1.1108491430       -4.5723002108
 H         -0.1707401502       -1.5536772402       -5.4078436860
 H         -0.0171725091       -1.7296581004       -3.8787798203
 O          3.7651384450       -2.1797985129        1.7538264028
 H          3.0636587345       -1.6655929995        2.1947955931
 H          4.4988845715       -1.5714670140        1.6333627688
 O          0.9718155262       -3.4363328774        3.4616301258
 H          1.8505677971       -3.8164560678        3.5131224632
 H          0.6238811807       -3.6670761350        2.5824573900
 O          5.0532949889        0.0295939537        0.2115370657
 H          5.0333802681        0.8208771040       -0.3507973331
 H          5.2451204520       -0.7019421224       -0.3796602076
