 xtb: 6.5.1 (579679a)
          10272218053D

165113  0     0  0            999 V2000
   -0.5425   -1.1598    0.9181 h   0  0  0  0  0  0  0  0  0  0  0  0
   -0.6113   -0.5413    0.0101 c   0  0  0  0  0  0  0  0  0  0  0  0
   -0.5391   -1.1969   -0.8712 h   0  0  0  0  0  0  0  0  0  0  0  0
    0.5104    0.5038   -0.0095 c   0  0  0  0  0  0  0  0  0  0  0  0
    0.3911    1.1519    0.8601 h   0  0  0  0  0  0  0  0  0  0  0  0
    0.3944    1.1153   -0.9056 h   0  0  0  0  0  0  0  0  0  0  0  0
   -1.7892    0.2100   -0.0077 o   0  0  0  0  0  0  0  0  0  0  0  0
   -2.5647   -0.3621    0.0027 h   0  0  0  0  0  0  0  0  0  0  0  0
    1.8637   -0.1173    0.0059 n   0  0  0  0  0  0  0  0  0  0  0  0
    1.9871   -0.7237   -0.8163 h   0  0  0  0  0  0  0  0  0  0  0  0
    1.9840   -0.6891    0.8531 h   0  0  0  0  0  0  0  0  0  0  0  0
    2.5931    0.6072   -0.0077 h   0  0  0  0  0  0  0  0  0  0  0  0
    4.6084   -2.5633   -0.9543 o   0  0  0  0  0  0  0  0  0  0  0  0
    3.6298   -2.6720   -0.8878 h   0  0  0  0  0  0  0  0  0  0  0  0
    4.7527   -1.6437   -1.2323 h   0  0  0  0  0  0  0  0  0  0  0  0
    1.7100   -1.8564    2.1118 o   0  0  0  0  0  0  0  0  0  0  0  0
    0.9333   -2.4176    1.9082 h   0  0  0  0  0  0  0  0  0  0  0  0
    2.4037   -2.4935    2.3651 h   0  0  0  0  0  0  0  0  0  0  0  0
    0.3630   -0.3402   -3.3030 o   0  0  0  0  0  0  0  0  0  0  0  0
   -0.5878   -0.5128   -3.1733 h   0  0  0  0  0  0  0  0  0  0  0  0
    0.4623    0.6269   -3.2669 h   0  0  0  0  0  0  0  0  0  0  0  0
   -4.3455   -0.5163    0.0940 o   0  0  0  0  0  0  0  0  0  0  0  0
   -4.6838    0.2298   -0.4339 h   0  0  0  0  0  0  0  0  0  0  0  0
   -4.4692   -0.2428    1.0155 h   0  0  0  0  0  0  0  0  0  0  0  0
    2.1582    0.3852    3.5019 o   0  0  0  0  0  0  0  0  0  0  0  0
    1.9423   -0.4509    3.0433 h   0  0  0  0  0  0  0  0  0  0  0  0
    1.4867    0.4353    4.2096 h   0  0  0  0  0  0  0  0  0  0  0  0
   -1.9027    0.1953    3.0785 o   0  0  0  0  0  0  0  0  0  0  0  0
   -2.8325    0.4122    3.2292 h   0  0  0  0  0  0  0  0  0  0  0  0
   -1.5001    1.0329    2.7594 h   0  0  0  0  0  0  0  0  0  0  0  0
   -0.3134   -3.5550    1.5080 o   0  0  0  0  0  0  0  0  0  0  0  0
   -1.1715   -3.2271    1.8331 h   0  0  0  0  0  0  0  0  0  0  0  0
   -0.4351   -3.7287    0.5603 h   0  0  0  0  0  0  0  0  0  0  0  0
    3.9484    1.4712    0.1721 o   0  0  0  0  0  0  0  0  0  0  0  0
    4.1803    1.2714    1.1110 h   0  0  0  0  0  0  0  0  0  0  0  0
    4.5663    0.8911   -0.3495 h   0  0  0  0  0  0  0  0  0  0  0  0
    0.8192    2.3375   -2.8367 o   0  0  0  0  0  0  0  0  0  0  0  0
   -0.0682    2.7041   -3.0268 h   0  0  0  0  0  0  0  0  0  0  0  0
    1.0672    2.7684   -1.9973 h   0  0  0  0  0  0  0  0  0  0  0  0
   -1.9623    2.8877   -0.1047 o   0  0  0  0  0  0  0  0  0  0  0  0
   -2.8447    3.1039    0.2354 h   0  0  0  0  0  0  0  0  0  0  0  0
   -1.9179    1.9108   -0.1107 h   0  0  0  0  0  0  0  0  0  0  0  0
   -2.7463   -2.5848   -0.7209 o   0  0  0  0  0  0  0  0  0  0  0  0
   -2.1737   -3.3466   -0.8849 h   0  0  0  0  0  0  0  0  0  0  0  0
   -2.7697   -2.4478    0.2525 h   0  0  0  0  0  0  0  0  0  0  0  0
   -4.5706    0.8024    2.5444 o   0  0  0  0  0  0  0  0  0  0  0  0
   -5.4915    1.0895    2.6787 h   0  0  0  0  0  0  0  0  0  0  0  0
   -4.2066    1.5520    2.0348 h   0  0  0  0  0  0  0  0  0  0  0  0
    1.9193    2.5924    2.0246 o   0  0  0  0  0  0  0  0  0  0  0  0
    2.7296    3.1000    2.1835 h   0  0  0  0  0  0  0  0  0  0  0  0
    2.0056    1.7794    2.5735 h   0  0  0  0  0  0  0  0  0  0  0  0
   -0.8541    2.5707    2.3806 o   0  0  0  0  0  0  0  0  0  0  0  0
    0.0928    2.7571    2.4231 h   0  0  0  0  0  0  0  0  0  0  0  0
   -1.1692    2.8747    1.5123 h   0  0  0  0  0  0  0  0  0  0  0  0
   -4.4821    2.9870    0.9168 o   0  0  0  0  0  0  0  0  0  0  0  0
   -5.2745    3.2455    1.3984 h   0  0  0  0  0  0  0  0  0  0  0  0
   -4.8111    2.5586    0.1001 h   0  0  0  0  0  0  0  0  0  0  0  0
   -5.1595    1.6617   -1.2944 o   0  0  0  0  0  0  0  0  0  0  0  0
   -6.0506    1.5045   -1.6402 h   0  0  0  0  0  0  0  0  0  0  0  0
   -4.5443    1.6496   -2.0607 h   0  0  0  0  0  0  0  0  0  0  0  0
   -3.4622    1.3683   -3.3185 o   0  0  0  0  0  0  0  0  0  0  0  0
   -2.8690    2.1376   -3.3236 h   0  0  0  0  0  0  0  0  0  0  0  0
   -2.9072    0.5947   -3.0851 h   0  0  0  0  0  0  0  0  0  0  0  0
   -2.2404   -0.9778   -2.8490 o   0  0  0  0  0  0  0  0  0  0  0  0
   -2.6921   -1.5682   -3.4814 h   0  0  0  0  0  0  0  0  0  0  0  0
   -2.4079   -1.3953   -1.9818 h   0  0  0  0  0  0  0  0  0  0  0  0
   -1.6714    3.3409   -2.7431 o   0  0  0  0  0  0  0  0  0  0  0  0
   -1.7923    3.1674   -1.7802 h   0  0  0  0  0  0  0  0  0  0  0  0
   -1.4687    4.2853   -2.7695 h   0  0  0  0  0  0  0  0  0  0  0  0
   -6.7323   -2.3725    0.4870 o   0  0  0  0  0  0  0  0  0  0  0  0
   -6.1837   -2.4404   -0.3287 h   0  0  0  0  0  0  0  0  0  0  0  0
   -7.3364   -3.1151    0.4833 h   0  0  0  0  0  0  0  0  0  0  0  0
    2.9708   -0.5223   -2.5133 o   0  0  0  0  0  0  0  0  0  0  0  0
    3.3429    0.3544   -2.6968 h   0  0  0  0  0  0  0  0  0  0  0  0
    2.0846   -0.5147   -2.9108 h   0  0  0  0  0  0  0  0  0  0  0  0
    3.5980    2.1585   -3.0180 o   0  0  0  0  0  0  0  0  0  0  0  0
    3.7403    2.8612   -2.3652 h   0  0  0  0  0  0  0  0  0  0  0  0
    2.6793    2.2644   -3.3064 h   0  0  0  0  0  0  0  0  0  0  0  0
   -2.5965   -2.2121    1.9285 o   0  0  0  0  0  0  0  0  0  0  0  0
   -3.5159   -2.3216    2.2649 h   0  0  0  0  0  0  0  0  0  0  0  0
   -2.2962   -1.3599    2.2961 h   0  0  0  0  0  0  0  0  0  0  0  0
    1.4758    3.5766   -0.4855 o   0  0  0  0  0  0  0  0  0  0  0  0
    2.3268    3.9883   -0.6722 h   0  0  0  0  0  0  0  0  0  0  0  0
    1.5554    3.1794    0.4018 h   0  0  0  0  0  0  0  0  0  0  0  0
    5.6159   -0.0844   -0.9957 o   0  0  0  0  0  0  0  0  0  0  0  0
    6.3624   -0.1005   -0.3638 h   0  0  0  0  0  0  0  0  0  0  0  0
    5.9228    0.3825   -1.7974 h   0  0  0  0  0  0  0  0  0  0  0  0
    4.6940    0.5040    2.4871 o   0  0  0  0  0  0  0  0  0  0  0  0
    4.8926   -0.4203    2.2109 h   0  0  0  0  0  0  0  0  0  0  0  0
    3.9305    0.4588    3.0844 h   0  0  0  0  0  0  0  0  0  0  0  0
    5.1550   -1.9722    1.6018 o   0  0  0  0  0  0  0  0  0  0  0  0
    4.9620   -2.1953    0.6610 h   0  0  0  0  0  0  0  0  0  0  0  0
    6.1210   -2.1793    1.7167 h   0  0  0  0  0  0  0  0  0  0  0  0
    1.9921   -2.7641   -0.7025 o   0  0  0  0  0  0  0  0  0  0  0  0
    1.5711   -2.9651   -1.5551 h   0  0  0  0  0  0  0  0  0  0  0  0
    1.9593   -3.5889   -0.1683 h   0  0  0  0  0  0  0  0  0  0  0  0
    6.4136    2.4987    1.7861 o   0  0  0  0  0  0  0  0  0  0  0  0
    5.8227    3.2218    2.0424 h   0  0  0  0  0  0  0  0  0  0  0  0
    5.9691    1.7033    2.1320 h   0  0  0  0  0  0  0  0  0  0  0  0
   -5.2345   -2.4853   -1.7507 o   0  0  0  0  0  0  0  0  0  0  0  0
   -4.3939   -2.4105   -1.2495 h   0  0  0  0  0  0  0  0  0  0  0  0
   -5.3943   -1.6135   -2.1448 h   0  0  0  0  0  0  0  0  0  0  0  0
   -0.0103    0.0675    5.0448 o   0  0  0  0  0  0  0  0  0  0  0  0
   -0.7368    0.1040    4.3915 h   0  0  0  0  0  0  0  0  0  0  0  0
   -0.1815   -0.6910    5.6023 h   0  0  0  0  0  0  0  0  0  0  0  0
    0.8102   -3.1471   -3.1416 o   0  0  0  0  0  0  0  0  0  0  0  0
    1.7123   -3.2850   -3.5051 h   0  0  0  0  0  0  0  0  0  0  0  0
    0.5692   -2.2477   -3.4006 h   0  0  0  0  0  0  0  0  0  0  0  0
   -5.1163   -2.0851    2.7144 o   0  0  0  0  0  0  0  0  0  0  0  0
   -5.1292   -1.1456    2.9251 h   0  0  0  0  0  0  0  0  0  0  0  0
   -5.7032   -2.2036    1.9463 h   0  0  0  0  0  0  0  0  0  0  0  0
    7.7693    0.2075    0.6446 o   0  0  0  0  0  0  0  0  0  0  0  0
    7.7719    1.0576    1.0938 h   0  0  0  0  0  0  0  0  0  0  0  0
    8.3346    0.2588   -0.1378 h   0  0  0  0  0  0  0  0  0  0  0  0
    7.7187   -2.4232    1.6039 o   0  0  0  0  0  0  0  0  0  0  0  0
    8.0200   -1.5081    1.5451 h   0  0  0  0  0  0  0  0  0  0  0  0
    7.7658   -2.7629    0.6864 h   0  0  0  0  0  0  0  0  0  0  0  0
    4.2198    3.8599   -0.7935 o   0  0  0  0  0  0  0  0  0  0  0  0
    4.1150    2.9429   -0.4179 h   0  0  0  0  0  0  0  0  0  0  0  0
    5.1679    3.9364   -0.9735 h   0  0  0  0  0  0  0  0  0  0  0  0
    3.4324   -3.0119   -3.6213 o   0  0  0  0  0  0  0  0  0  0  0  0
    4.0252   -3.4951   -3.0395 h   0  0  0  0  0  0  0  0  0  0  0  0
    3.4499   -2.0895   -3.3082 h   0  0  0  0  0  0  0  0  0  0  0  0
   -7.7295    0.1936    0.3739 o   0  0  0  0  0  0  0  0  0  0  0  0
   -7.7274    0.3660   -0.5762 h   0  0  0  0  0  0  0  0  0  0  0  0
   -7.3761   -0.7057    0.4862 h   0  0  0  0  0  0  0  0  0  0  0  0
    1.9827   -4.9441    0.8422 o   0  0  0  0  0  0  0  0  0  0  0  0
    2.6967   -4.7351    1.4631 h   0  0  0  0  0  0  0  0  0  0  0  0
    1.1658   -4.8163    1.3409 h   0  0  0  0  0  0  0  0  0  0  0  0
   -0.6739   -4.3434   -1.1766 o   0  0  0  0  0  0  0  0  0  0  0  0
   -0.3760   -5.2519   -1.1058 h   0  0  0  0  0  0  0  0  0  0  0  0
   -0.2027   -3.9581   -1.9392 h   0  0  0  0  0  0  0  0  0  0  0  0
   -5.4488   -0.4882   -3.7479 o   0  0  0  0  0  0  0  0  0  0  0  0
   -4.7971    0.2311   -3.7749 h   0  0  0  0  0  0  0  0  0  0  0  0
   -5.1242   -1.1717   -4.3413 h   0  0  0  0  0  0  0  0  0  0  0  0
   -3.7838   -2.8515   -4.0249 o   0  0  0  0  0  0  0  0  0  0  0  0
   -3.3185   -3.6807   -4.1325 h   0  0  0  0  0  0  0  0  0  0  0  0
   -4.3772   -2.9568   -3.2516 h   0  0  0  0  0  0  0  0  0  0  0  0
   -7.4724    0.6837   -2.3961 o   0  0  0  0  0  0  0  0  0  0  0  0
   -8.1758    1.0509   -2.9306 h   0  0  0  0  0  0  0  0  0  0  0  0
   -6.9082    0.1492   -2.9837 h   0  0  0  0  0  0  0  0  0  0  0  0
   -0.5625    5.3561   -1.2513 o   0  0  0  0  0  0  0  0  0  0  0  0
   -1.1873    5.4181   -0.5272 h   0  0  0  0  0  0  0  0  0  0  0  0
    0.1423    4.7647   -0.9441 h   0  0  0  0  0  0  0  0  0  0  0  0
   -6.9232    2.0267    2.1157 o   0  0  0  0  0  0  0  0  0  0  0  0
   -7.2262    1.3893    1.4270 h   0  0  0  0  0  0  0  0  0  0  0  0
   -7.6962    2.2224    2.6438 h   0  0  0  0  0  0  0  0  0  0  0  0
    7.4172   -2.7727   -1.0597 o   0  0  0  0  0  0  0  0  0  0  0  0
    6.4611   -2.9060   -1.1115 h   0  0  0  0  0  0  0  0  0  0  0  0
    7.5954   -1.8860   -1.3975 h   0  0  0  0  0  0  0  0  0  0  0  0
    6.3467    1.5555   -2.9764 o   0  0  0  0  0  0  0  0  0  0  0  0
    6.5414    2.2404   -2.3130 h   0  0  0  0  0  0  0  0  0  0  0  0
    5.4732    1.7650   -3.3360 h   0  0  0  0  0  0  0  0  0  0  0  0
    6.8434    3.1291   -0.7636 o   0  0  0  0  0  0  0  0  0  0  0  0
    7.6944    3.5651   -0.7478 h   0  0  0  0  0  0  0  0  0  0  0  0
    6.6753    2.8172    0.1604 h   0  0  0  0  0  0  0  0  0  0  0  0
    4.1891    4.2093    1.9111 o   0  0  0  0  0  0  0  0  0  0  0  0
    3.9123    5.0469    2.2795 h   0  0  0  0  0  0  0  0  0  0  0  0
    4.1711    4.2983    0.9361 h   0  0  0  0  0  0  0  0  0  0  0  0
    8.3475   -0.1510   -2.0255 o   0  0  0  0  0  0  0  0  0  0  0  0
    9.0193   -0.5847   -2.5497 h   0  0  0  0  0  0  0  0  0  0  0  0
    7.8203    0.3967   -2.6251 h   0  0  0  0  0  0  0  0  0  0  0  0
    3.5861   -3.7082    2.7380 o   0  0  0  0  0  0  0  0  0  0  0  0
    3.8991   -3.9452    3.6098 h   0  0  0  0  0  0  0  0  0  0  0  0
    4.2785   -3.1211    2.3347 h   0  0  0  0  0  0  0  0  0  0  0  0
  1  2  1  0  0  0  0
  2  3  1  0  0  0  0
  2  4  1  0  0  0  0
  4  5  1  0  0  0  0
  4  6  1  0  0  0  0
  2  7  1  0  0  0  0
  7  8  1  0  0  0  0
  4  9  1  0  0  0  0
  9 10  1  0  0  0  0
  9 11  1  0  0  0  0
  9 12  1  0  0  0  0
 13 14  1  0  0  0  0
 13 15  1  0  0  0  0
 16 17  1  0  0  0  0
 16 18  1  0  0  0  0
 19 20  1  0  0  0  0
 19 21  1  0  0  0  0
 22 23  1  0  0  0  0
 22 24  1  0  0  0  0
 25 26  1  0  0  0  0
 25 27  1  0  0  0  0
 28 29  1  0  0  0  0
 28 30  1  0  0  0  0
 31 32  1  0  0  0  0
 31 33  1  0  0  0  0
 34 35  1  0  0  0  0
 34 36  1  0  0  0  0
 37 38  1  0  0  0  0
 37 39  1  0  0  0  0
 40 41  1  0  0  0  0
 40 42  1  0  0  0  0
 43 44  1  0  0  0  0
 43 45  1  0  0  0  0
 46 47  1  0  0  0  0
 46 48  1  0  0  0  0
 49 50  1  0  0  0  0
 49 51  1  0  0  0  0
 52 53  1  0  0  0  0
 52 54  1  0  0  0  0
 55 56  1  0  0  0  0
 55 57  1  0  0  0  0
 58 59  1  0  0  0  0
 58 60  1  0  0  0  0
 61 62  1  0  0  0  0
 61 63  1  0  0  0  0
 64 65  1  0  0  0  0
 64 66  1  0  0  0  0
 67 68  1  0  0  0  0
 67 69  1  0  0  0  0
 70 71  1  0  0  0  0
 70 72  1  0  0  0  0
 73 74  1  0  0  0  0
 73 75  1  0  0  0  0
 76 77  1  0  0  0  0
 76 78  1  0  0  0  0
 79 80  1  0  0  0  0
 79 81  1  0  0  0  0
 82 83  1  0  0  0  0
 82 84  1  0  0  0  0
 85 86  1  0  0  0  0
 85 87  1  0  0  0  0
 88 89  1  0  0  0  0
 88 90  1  0  0  0  0
 91 92  1  0  0  0  0
 91 93  1  0  0  0  0
 94 95  1  0  0  0  0
 94 96  1  0  0  0  0
 97 98  1  0  0  0  0
 97 99  1  0  0  0  0
100101  1  0  0  0  0
100102  1  0  0  0  0
103104  1  0  0  0  0
103105  1  0  0  0  0
106107  1  0  0  0  0
106108  1  0  0  0  0
109110  1  0  0  0  0
109111  1  0  0  0  0
112113  1  0  0  0  0
112114  1  0  0  0  0
115116  1  0  0  0  0
115117  1  0  0  0  0
118119  1  0  0  0  0
118120  1  0  0  0  0
121122  1  0  0  0  0
121123  1  0  0  0  0
124125  1  0  0  0  0
124126  1  0  0  0  0
127128  1  0  0  0  0
127129  1  0  0  0  0
130131  1  0  0  0  0
130132  1  0  0  0  0
133134  1  0  0  0  0
133135  1  0  0  0  0
136137  1  0  0  0  0
136138  1  0  0  0  0
139140  1  0  0  0  0
139141  1  0  0  0  0
142143  1  0  0  0  0
142144  1  0  0  0  0
145146  1  0  0  0  0
145147  1  0  0  0  0
148149  1  0  0  0  0
148150  1  0  0  0  0
151152  1  0  0  0  0
151153  1  0  0  0  0
154155  1  0  0  0  0
154156  1  0  0  0  0
157158  1  0  0  0  0
157159  1  0  0  0  0
160161  1  0  0  0  0
160162  1  0  0  0  0
163164  1  0  0  0  0
163165  1  0  0  0  0
M  CHG  1   1   1
M  END
