  312

 H         -0.5425054112       -1.1597996587        0.9180873601
 C         -0.6112510051       -0.5412956738        0.0100749183
 H         -0.5391308395       -1.1969144471       -0.8712436597
 C          0.5103658647        0.5037878335       -0.0094871840
 H          0.3911098457        1.1518924073        0.8600966289
 H          0.3944399221        1.1152669955       -0.9056411628
 O         -1.7891825170        0.2100258092       -0.0077307040
 H         -2.5646581753       -0.3620747642        0.0026734602
 N          1.8637421187       -0.1172780949        0.0059475209
 H          1.9871272141       -0.7237037741       -0.8163106220
 H          1.9839787968       -0.6890763207        0.8531041597
 H          2.5930828886        0.6072400317       -0.0077051378
 O          3.3032565629       -4.8500918535       -0.1334529362
 H          4.0341305004       -4.8084655655        0.5341378065
 H          2.8102047965       -3.9961238188       -0.0857922946
 O          3.2608852135        2.1718806701       -0.2025961990
 H          3.2362557543        2.8363170009        0.5084505010
 H          3.9529192193        2.4440985970       -0.8331754344
 O          1.7365892201       -0.5031586536        2.7634742447
 H          2.1682587973       -0.4472695753        3.6381720456
 H          0.7839587374       -0.3839041910        2.9733287278
 O          2.4973386347        0.2183660401        5.2584840228
 H          2.4135754636        1.1847525782        5.2422822615
 H          1.7132766101       -0.1010947378        5.7321557366
 O          1.8446163337       -0.2335889319       -2.6858980911
 H          0.9777708466       -0.5772979189       -2.9669739949
 H          1.7190296754        0.7303837427       -2.5556155416
 O         -0.8310134080        2.7388529943        3.7154956845
 H         -0.6107040704        3.0213540535        2.8079581218
 H         -1.7731462055        2.9201819175        3.8559545540
 O         -3.0365077327       -3.4093784017        0.7181093009
 H         -2.7470048353       -3.1591210448       -0.1762009856
 H         -2.4900486850       -2.8922772141        1.3332166444
 O          2.3566507047        2.0107887293        2.3505869532
 H          2.2549168056        2.3676157582        3.2564313508
 H          2.0948005804        1.0661026569        2.4276967932
 O          1.5110768237        2.3875516202       -2.2110666405
 H          2.0283450584        2.6951333918       -2.9728786521
 H          2.1034120227        2.4407257700       -1.4387674920
 O          1.5197253163       -2.8759044670       -0.2432166669
 H          0.7593915874       -3.4916730224       -0.1706530580
 H          1.6061572816       -2.7251445924       -1.1936278813
 O          3.8302325208       -1.9648467188       -1.7559790949
 H          4.7034440501       -2.3487431843       -1.9721565849
 H          3.8773494643       -1.0322419923       -2.1002746928
 O          4.4751480625       -1.1575999721        0.6835991102
 H          4.0108413659       -1.6576593555        1.3892670525
 H          4.1428575061       -1.4984859156       -0.1770716492
 O          0.1051108457        1.1318600256       -4.4881726940
 H         -0.2328780196        1.2948003437       -3.5844753485
 H         -0.6732925039        0.8200922598       -4.9803747990
 O         -1.3493126497        1.7631510178       -2.3255453643
 H         -1.6012981998        1.1623530096       -1.6085725190
 H         -2.1435286759        1.8890151399       -2.8712070402
 O          0.2229565297        3.1802550362        1.2359945552
 H          0.4507766029        3.8769587790        0.5954333533
 H          1.0801213911        2.8811363042        1.6049673745
 O         -0.6724548163        0.0839259117        3.6240061495
 H         -0.8313919168        1.0534395307        3.5941507292
 H         -0.5028048669       -0.1366498140        4.5607102443
 O         -2.9892640820       -0.4870525014       -2.9771623182
 H         -3.5587617612       -1.2564330569       -3.1766432492
 H         -3.5111867064        0.1186327272       -2.4328090337
 O         -0.3718235064       -1.6800462459       -3.1666258822
 H          0.2921705825       -2.3903635804       -3.1485006430
 H         -0.6521283973       -1.6123147165       -4.0974050598
 O         -2.3419223265        3.1172038004        0.0606748133
 H         -1.4176331492        2.8936664678        0.2298525183
 H         -2.6033583244        3.6910477268        0.8137530147
 O          0.7105504749        5.2067585877       -0.4761270054
 H          1.6301324607        5.3066319831       -0.7642728017
 H          0.2097701799        4.9468906146       -1.2842977203
 O         -0.4766133142       -4.5995013347       -0.5394066530
 H         -1.1322836133       -4.0598931237       -1.0417896288
 H         -0.9239930525       -4.9083509945        0.2586128080
 O         -2.7674248841        1.2814074702        2.3075479200
 H         -2.2595606532        0.9528077023        1.5504969627
 H         -3.5843869719        1.6379655731        1.9289537045
 O         -0.5839113013        4.3490258432       -2.6295126604
 H         -0.0812806637        4.2977064684       -3.4616115108
 H         -0.6957873909        3.4100397173       -2.3739376892
 O          3.1169828052        2.9124504846       -4.3901158706
 H          3.1014016565        1.9874844508       -4.7208216469
 H          2.3865274598        3.3694081119       -4.8287207959
 O          4.4579808470        0.4625616565       -2.4207459470
 H          4.9980942520        0.7301500724       -1.6563830384
 H          5.0711200245        0.2676977842       -3.1492236836
 O          4.4207989984       -4.7662075983       -2.6447974471
 H          4.0233892936       -5.5312720766       -3.0619066912
 H          4.0881727810       -4.7625424261       -1.7238222684
 O          4.6689420499        3.3257168324       -2.2012028156
 H          4.1607980535        3.1507497090       -3.0146537247
 H          5.5454550326        2.9359208127       -2.3598783457
 O          3.4655600236       -2.6619025479        2.5948287220
 H          3.8370670977       -2.1246024418        3.3288164159
 H          2.5038588014       -2.7496269505        2.7469430864
 O          0.9049058857       -3.3441555041        2.9831677608
 H          0.0676425668       -2.9685448457        2.6419235394
 H          1.0344212570       -4.2036931849        2.5518579586
 O         -3.7678191430       -0.4499469357        4.0980696998
 H         -4.2565639241       -1.0123002632        3.4578506705
 H         -3.1879161518        0.1133468720        3.5382437725
 O         -4.9967036368       -2.1252427737        2.4460139394
 H         -5.9144495808       -2.3337537051        2.6960358530
 H         -4.4942184592       -2.9526663190        2.6110820063
 O         -4.2235002237       -0.8799493641        0.1589130323
 H         -4.5456530269       -1.3427429909        0.9535294931
 H         -4.6853752454       -1.2376163749       -0.6103551569
 O         -4.0597170532        1.4615191672       -1.1834135943
 H         -4.3164371980        0.7435780093       -0.5832848426
 H         -3.4084184174        1.9917695660       -0.6872768676
 O         -2.3621868424        0.4578255507       -5.3456537520
 H         -2.5203271605        0.0302404177       -4.4580875463
 H         -2.6787787479        1.3614974555       -5.2167971006
 O          5.8515095192        1.0311262294       -0.1782363607
 H          5.4617694870        0.3191511724        0.3526694828
 H          6.8238465219        0.9448848866       -0.1771452642
 O         -2.7511636853        4.8397012629        2.0197242811
 H         -1.8422876290        5.1678126238        2.1532938303
 H         -3.0448624970        4.4199656322        2.8461465235
 O         -3.4515047725        2.5367015507       -3.9637498947
 H         -4.3256749986        2.1322000711       -3.9420700590
 H         -3.4840252104        3.3277006468       -3.3960882958
 O         -1.4920429837       -2.2003282516        2.5921603716
 H         -1.3219057649       -1.2775916908        2.8708074323
 H         -1.8849652011       -2.6076208232        3.3896174908
 O         -3.2119815683        4.5210268289       -2.0584583878
 H         -2.3650914084        4.8165358032       -2.4320557979
 H         -2.9238176893        3.9570815109       -1.3050889748
 O          3.1000113422        0.2772042639       -4.9884918991
 H          2.7522609219        0.0857106751       -4.0817370760
 H          4.0430428594        0.0845387707       -4.9780567097
 O         -4.4128961916       -2.5365679734       -4.0117173541
 H         -3.7005700419       -3.1272980361       -4.3013887336
 H         -4.6590865327       -1.9663765526       -4.7694329786
 O         -5.5409165070       -3.8973769578       -0.0927199678
 H         -4.6660012112       -3.6613902484        0.2827525289
 H         -6.1366445543       -3.1541467981        0.1270139856
 O         -5.7522200974       -0.7514313265       -2.1272322916
 H         -6.1813507923       -1.5924064921       -2.3857795507
 H         -5.7926746101       -0.1615576170       -2.8977729380
 O         -3.8611430971       -4.4931217866        3.1054063191
 H         -4.7035379798       -4.9469833535        2.8605805920
 H         -3.2663542016       -4.6106898292        2.3535611907
 O         -6.8522185677        0.6703900932       -0.2153793811
 H         -7.6667865718        1.1105851538       -0.4800576874
 H         -6.4609577800        0.2709136720       -1.0286064014
 O         -6.3784699076        4.2252574435        0.4789420318
 H         -6.4183627773        3.9024621499       -0.4426425419
 H         -5.7761971251        5.0008817641        0.4430995324
 O         -5.8028361415        3.2530269606       -1.9805213940
 H         -5.2203584545        3.9878780768       -2.1993916822
 H         -5.2049454251        2.5514702282       -1.6115699872
 O          3.3727988305        5.4548877400       -1.2423214879
 H          3.8833938501        4.6956066844       -1.6004635651
 H          3.6843913562        6.2321662148       -1.7029658594
 O          6.3583222653       -2.8312424388       -2.0540931432
 H          6.5598027647       -2.9315831761       -1.0968440953
 H          6.2031334981       -3.7091279599       -2.4141609628
 O         -5.2296767390        2.0515677167        1.4127940680
 H         -5.7881583107        1.4425014279        0.8920482531
 H         -5.5595378704        2.9464121486        1.1702048719
 O          3.5567526680        4.4444820682        1.2896026669
 H          4.5035822793        4.2069691624        1.2634829696
 H          3.4184910903        5.0070743007        0.5135139279
 O         -6.1565554479        1.3199046442       -3.8910193496
 H         -6.1844630159        2.0966442155       -3.3010071293
 H         -7.0681174807        0.9723755704       -3.8310483856
 O         -9.4196663739        1.8906373800       -0.6935961247
 H        -10.1227107741        2.4226920418       -1.0669638305
 H         -9.1638612685        2.3534912539        0.1574028473
 O         -7.2262635286       -1.8704708551        0.4844099781
 H         -6.9674975072       -0.9392203628        0.3259486898
 H         -7.8852315381       -1.8147346566        1.2013330041
 O         -3.4493734432        3.4942706394        4.2981275083
 H         -4.1766983248        2.8342651098        4.2232280369
 H         -3.5600300362        3.9327484973        5.1402625364
 O         -5.4177447219        1.6674503066        4.0033555126
 H         -4.8859774117        0.8607362054        4.1861734019
 H         -5.3473083871        1.8081065371        3.0252490667
 O          0.5484905163        3.6449151041       -5.0174166573
 H         -0.0108044989        3.8590949519       -5.7615574941
 H          0.4194751669        2.6667937411       -4.8444782591
 O         -0.6826392635       -1.8599902146       -5.8429014653
 H          0.2921630640       -1.9150613324       -5.9737163433
 H         -1.0106923772       -1.0560668461       -6.2507628510
 O          1.8645800167       -3.1776921519       -3.1066499108
 H          2.6891346777       -2.8050965961       -2.7233691111
 H          1.8149695286       -4.1313141398       -2.8793645070
 O         -2.2039937130       -3.0292418748       -1.7668122377
 H         -2.7948506846       -3.5879481979       -2.2977502715
 H         -1.7409098363       -2.4177376014       -2.3748508656
 O          4.6946704739       -1.0312461257        4.2644112564
 H          4.0954932675       -0.6927922103        4.9447769698
 H          4.8333036503       -0.2665012454        3.6608229642
 O          4.8904521878        1.1536486050        2.7256554815
 H          4.0705085489        1.3736567014        2.2490100496
 H          4.9320890320        1.8515294903        3.4167826257
 O          6.5998933223       -2.7239001534        0.5705393359
 H          5.8694362765       -2.0648104608        0.6637804064
 H          7.3383327833       -2.3726778439        1.1035271427
 O          6.0020225425        3.5146730776        0.7993951137
 H          5.8081407604        2.5843134133        0.5490612511
 H          6.6766520687        3.7961019559        0.1385927746
 O          4.6136112398       -2.8118314840       -4.7363539808
 H          4.5029667373       -3.4901803281       -4.0562245325
 H          3.7911090908       -2.7643780247       -5.2435795394
 O          5.8883889902       -0.4578387099       -4.5305518542
 H          5.5160468764       -1.3585900343       -4.6367180656
 H          6.7919384487       -0.5831100159       -4.2277910904
 O          6.9953369509        2.0805425877       -2.9559996316
 H          6.9303476413        1.9853282973       -3.9075265328
 H          7.2622340088        1.2051760738       -2.6127470154
 O          8.5125603612        1.2769936251        0.2082106296
 H          9.0704468727        0.5159892568       -0.0043881450
 H          8.2900084207        1.1986511965        1.1607806161
 O         -8.4833227537        0.4138988142       -2.9548491463
 H         -8.8803145440        1.0229924335       -2.3235086311
 H         -8.6489334485       -0.4811966912       -2.5982133905
 O         -6.6284263599       -3.2401711591       -2.7009281853
 H         -6.3631407280       -3.7383040984       -1.9193404779
 H         -5.8544214432       -3.2518630546       -3.2969224663
 O         -8.8411385659       -1.9641028635       -1.6917945568
 H         -8.2386687818       -2.0008588651       -0.9184349705
 H         -8.4765581944       -2.6031830240       -2.3143159744
 O          7.9954326498        3.7278022281       -0.9170147149
 H          8.4183234459        2.9564093190       -0.5055082174
 H          7.7094216271        3.4043333940       -1.7814749554
 O         -8.6349293627        3.0480111325        1.4876532111
 H         -7.8620230996        3.5860908405        1.2461300597
 H         -8.3383271871        2.3852861562        2.1344972219
 O          7.5633184870        0.9371418601        2.6734905701
 H          6.5922028557        0.8732200176        2.5868601944
 H          7.6955421395        1.8070051143        3.0876420072
 O         -7.9813424076        1.1841240301        3.4409611715
 H         -8.5481710374        1.4699915204        4.1571714310
 H         -7.0522120335        1.3279654051        3.7402839915
 O          0.0249152433       -3.2131975548        5.5487656243
 H          0.4324440794       -3.3158535800        4.6656150599
 H         -0.9330904526       -3.2793047410        5.4210142329
 O          0.0467197861       -0.6733799892        6.0865574024
 H          0.1080995802       -1.6621892378        5.9464911864
 H         -0.5471606515       -0.5380600046        6.8227202996
 O          1.6621446355        2.8313340840        4.8078434572
 H          1.8875133199        3.7557657159        4.5826559052
 H          0.7080107130        2.7642557348        4.6344960760
 O          5.0817573925       -4.5872201788        1.7897356378
 H          5.7756389916       -4.0570120720        1.3508560281
 H          4.4834208564       -3.9310507058        2.2078055058
 O         -2.6621575156       -2.8459867497        4.9177143077
 H         -3.2585646811       -3.5116230554        4.5428258947
 H         -3.1075172925       -1.9790530659        4.8581001526
 O          9.5956508510       -1.2038314186       -0.2167184016
 H         10.4868534376       -1.5436559227       -0.2938421660
 H          9.2610264739       -1.4890988427        0.6541755122
 O         -4.3961569129        5.9530189547        0.0958725617
 H         -3.8020586625        5.7009108855        0.8200667508
 H         -3.9777724313        5.6469637831       -0.7227737731
 O         -4.9086197015       -0.5579855076       -5.7450348515
 H         -5.4220483602        0.1289387313       -5.3040394944
 H         -4.0053228986       -0.2116124607       -5.8402483810
 O          1.5008681303       -5.6303077322       -2.1120384367
 H          2.1568996936       -5.6974378892       -1.4068448496
 H          0.6662774927       -5.4340823324       -1.6512299131
 O          1.9680950317       -2.1022976075       -5.6322013510
 H          1.8817122178       -2.4610911898       -4.7293551781
 H          2.2981713224       -1.1852038294       -5.5354506360
 O          7.3276172094        3.6009481688        3.0629503264
 H          8.0848242044        4.1566277743        2.8861071208
 H          6.8058337825        3.5788042783        2.2176995843
 O          6.7304417094       -2.9066419993        3.8521452998
 H          6.0610867823       -2.2594611252        4.1261572787
 H          6.2627352511       -3.6754623570        3.5129449719
 O          8.4232483374       -1.6270084644        2.2208561296
 H          8.0158512793       -2.1756079871        2.9229270743
 H          8.2135516922       -0.7138234589        2.4806256551
 O         -9.0033108020       -1.1682188777        2.3777028674
 H         -8.6805259354       -0.3122123214        2.7049382976
 H         -9.6584703385       -0.9643653740        1.6690909054
 O          7.7165375972       -0.4785416038       -2.2968515981
 H          8.4604814576       -0.6515575262       -1.7086888625
 H          7.1766621690       -1.2860110331       -2.2609738660
 O          2.1180605984        5.1113802100        3.4909865459
 H          2.6576594237        4.8685359808        2.7158011304
 H          1.2555458954        5.3564855059        3.1264818242
 O         -0.2179185150        5.8914457518        2.0094198811
 H          0.1010253200        5.6990703231        1.1053619690
 H         -0.3418727925        6.8376989933        2.0526412040
 O          1.6831923220       -5.7559571490        1.8754740103
 H          2.3212378710       -6.0973917308        2.5035157228
 H          2.1976523259       -5.5239338642        1.0739611350
 O          4.9043600393        3.2437517683        4.3674143847
 H          4.2741007685        3.9488596380        4.2014222919
 H          5.7855151634        3.5746743229        4.1418371431
 O        -10.3863308198       -0.5577007055        0.2014491709
 H        -10.1511835542       -1.1713774443       -0.5067693680
 H        -10.1074560780        0.3219051595       -0.1051954814
 O         -6.2022383728       -5.2486548317        2.1764670995
 H         -6.8000232521       -4.6141690900        2.5939571652
 H         -6.0798584681       -4.9357773366        1.2603647334
 O         -1.1160854629       -5.5273370400        2.0135644841
 H         -0.1926731828       -5.8159245153        1.9950749375
 H         -1.5212364856       -5.9261854311        2.7842399439
 O         -7.3702151901       -2.9889417128        3.4304661162
 H         -8.1104481445       -2.4344614912        3.1152417416
 H         -7.3908216753       -2.9642902165        4.3863866042
 O         -2.0804666579       -3.8275719676       -4.5743818739
 H         -1.6099935208       -3.1967901215       -5.1446919447
 H         -1.8044850020       -4.7057893277       -4.8284916310
 O         -4.0439884342       -4.9879884393       -2.2162773589
 H         -3.7385407520       -5.8724558256       -2.0196684146
 H         -4.5976832459       -4.7114100716       -1.4710895592
