  136

 H         -0.0000000000       -0.0000000000       -0.0000000000
 O          0.5082646090        0.3275467681        0.8326946061
 H         -0.1309445192        0.7227820194        1.5343044146
 H          1.1027241630        1.1344188192        0.5541692301
 O         -0.8784311278        1.5858042771        2.5334789352
 H         -1.2969810690        1.2061762159        3.3348516112
 H         -1.6064922429        2.0110122459        2.0547563501
 O          1.6990470957        2.4717616178        0.3790483840
 H          1.7292643670        2.7992519369        1.3149790998
 H          0.9652028525        2.9806026045       -0.0410841529
 O         -1.8368585255       -3.4293299760        0.7250238128
 H         -2.1212372422       -3.7651011463       -0.1394560260
 H         -1.0198147585       -3.9183865052        0.9325434703
 O         -1.9456636064       -0.8215047990        1.4169550777
 H         -2.7752493293       -0.7606260460        1.9398140864
 H         -1.9333365557       -1.7125544793        1.0200888199
 O         -0.7321189965       -0.5871726159       -1.2033447173
 H         -1.7101612731       -0.6308432930       -1.0858974657
 H         -0.5980379383        0.0485157507       -1.9493259099
 O          1.8806831774       -1.7209506630       -0.2368536223
 H          1.2689123545       -2.2522522847       -0.7784701153
 H          1.8988893164       -0.8454508878       -0.6512899487
 O          1.7343301513        0.6361569275       -1.7731984487
 H          2.6636323907        0.7475381920       -1.4958067503
 H          1.4295364024        1.5261652877       -2.0470643363
 O         -0.6066421711        3.5668815653       -0.3013358593
 H         -0.7336815572        4.1319705979        0.4753981388
 H         -1.1648651038        2.7729351552       -0.1435593322
 O         -2.1803128585        1.5127880258        0.0975220189
 H         -2.1344047301        0.6255756441        0.4987049729
 H         -3.1189577029        1.7576990267        0.0846247562
 O          3.5135064010        0.1981619072        1.9706693925
 H          2.7166640472        0.2768626888        2.5239164157
 H          3.8765632517       -0.6903119098        2.1269535958
 O         -0.3926238913       -1.3479294074        3.5444496226
 H          0.3181511492       -1.9128923274        3.1779979985
 H         -0.9126344822       -1.0666002450        2.7585003264
 O          1.5312154940       -2.6416786528        2.2414455664
 H          1.5811070965       -2.1355342391        1.4018994297
 H          1.1691789330       -3.5126848589        1.9905184451
 O          1.2106536545        3.1872017040       -2.5622002692
 H          1.0774035077        3.8857538301       -1.9113833686
 H          2.1451131881        3.2962935270       -2.8446493277
 O         -1.0642405861       -1.4149231290       -4.4547173290
 H         -1.0240495540       -0.5128157811       -4.0834145439
 H         -0.1527766146       -1.6433569025       -4.6532481075
 O         -0.7315491474        0.9798565549       -3.2991112341
 H         -1.1589221412        1.8332659691       -3.1019094380
 H          0.0655880209        1.1963955140       -3.8353104663
 O         -3.3611251440       -0.7294775680       -1.2419037642
 H         -3.4132571265       -1.3822160591       -1.9807573713
 H         -3.5654190955        0.1519726051       -1.6362017752
 O          0.2111147024       -2.9140343824       -2.0104112124
 H         -0.3219987375       -2.1345649258       -1.7223662950
 H          0.7564414803       -2.5341703085       -2.7448896122
 O         -1.9619246516       -4.4686944328       -1.8361608565
 H         -1.1104459452       -4.0118878091       -2.0087451731
 H         -1.8284569848       -5.3956359803       -2.0328907469
 O          4.1610979025        0.5947186326       -0.6261457344
 H          3.9215831213        0.4024460100        0.3009591911
 H          4.4591055896        1.5218050854       -0.6236575140
 O         -4.0143692085        1.6219140259       -2.3391455863
 H         -3.3158682323        2.2869583275       -2.4333134152
 H         -4.1026347484        1.2075873227       -3.2182919290
 O         -3.2262497163       -2.4506839378       -3.2332123744
 H         -2.4198503737       -2.1893551952       -3.7246046083
 H         -3.0139897638       -3.2986297261       -2.8164016530
 O          1.4313150421        3.2052582494        2.8735945075
 H          1.2643646413        2.3265968867        3.2586013025
 H          0.5651939222        3.6341857774        2.7952339232
 O         -3.3022729998        2.9855230575        2.3967966822
 H         -3.6326127910        2.6112183645        3.2163388486
 H         -3.9613705895        2.7960790708        1.7101807322
 O         -1.0322733364        4.5492176692        2.2350794916
 H         -1.1571123959        5.4245680733        2.6000649183
 H         -1.8639888752        4.0612120572        2.3760476312
 O         -5.3106637295       -0.7183955045        0.5305949432
 H         -4.5547883889       -0.8307886820       -0.1006246208
 H         -6.0601040461       -1.1669459450        0.1406010869
 O         -4.1028792664       -0.8194810348        2.9758720620
 H         -3.8836629618       -1.7411766001        3.2308367768
 H         -4.7750907244       -0.8539353606        2.2778558554
 O          1.7721458897       -1.4642838733       -3.5011352665
 H          2.6893547768       -1.6985545269       -3.2913820886
 H          1.6330699010       -0.6188426689       -3.0223183789
 O          0.4251519432       -4.8738542263        1.2556567935
 H          0.3685409760       -5.7379323705        1.6625690145
 H          0.9690525152       -4.9807271152        0.4231636960
 O         -4.8571376137        1.9937484722        0.2959345159
 H         -5.1753956459        1.0933433948        0.4884469527
 H         -4.9414044523        2.1062909413       -0.6609310281
 O          4.3152934010       -1.5039285428       -2.3536018889
 H          4.3885638972       -0.8205647642       -1.6619741787
 H          4.4783163531       -2.3402126729       -1.8947039370
 O          4.1506502661        3.2940706310       -0.3685364775
 H          3.2188461449        3.0221055560       -0.2236789685
 H          4.5023264446        3.3508660046        0.5396620493
 O          3.8096339606        3.2380958040       -3.1331150193
 H          4.0265955670        2.3459595196       -3.4408674334
 H          4.2022034364        3.3381074460       -2.2556913357
 O          3.8814818100        0.6078213440       -4.0562690394
 H          4.1249637429       -0.1333076960       -3.4789800725
 H          4.1320881026        0.3492068328       -4.9419256813
 O         -1.8507907875        3.3891017017       -2.7100430749
 H         -1.3450889859        3.5850216971       -1.8959203484
 H         -1.5768900369        4.0314828938       -3.3651298106
 O          1.3698910562        1.5052208524       -4.8271842721
 H          2.1981737955        1.1210598083       -4.4941749466
 H          1.4813693388        2.4571117088       -4.7776480221
 O          1.8423426095       -4.9683392826       -0.9186212425
 H          2.7191890611       -4.5677917942       -0.7601132180
 H          1.3662884872       -4.3645714877       -1.5040527411
 O         -2.7367880001       -3.0819042099        3.3577287787
 H         -2.5464809281       -3.3912544654        2.4586315485
 H         -1.9098545867       -2.7085827945        3.6925925089
 O          1.4676580818        0.5693436432        3.7990644034
 H          1.7807769725        0.5584569010        4.7030628914
 H          0.7264014821       -0.0789958861        3.7448677174
 O         -2.3124084110        0.5578958595        4.5260617711
 H         -1.8041131379       -0.1736870456        4.8862748459
 H         -3.0816886344        0.1559320726        4.0905524850
 O          4.2696399095        2.8801911422        2.2870580500
 H          4.1602913834        1.9165660554        2.2607483532
 H          3.4746197941        3.2231268426        2.7091243640
 O          1.9031384274        5.1278384554       -0.6452514760
 H          2.8428726020        4.9111363502       -0.6989004467
 H          1.8227977011        5.9159457660       -0.1108379672
 O          3.9792511315       -3.3603172649       -0.3270123218
 H          3.2857774773       -2.6706540660       -0.2347426077
 H          4.4609010811       -3.3292112740        0.5058680578
 O          4.1902769161       -2.4447342160        2.3812490389
 H          3.2270142742       -2.6306398146        2.4461159905
 H          4.5801265096       -2.6723317243        3.2241670683
 O         -3.8336174934        0.0249273833       -4.5120068384
 H         -3.9832814407       -0.8877956000       -4.2396517569
 H         -3.0248610430        0.0146516382       -5.0297194174
