  612
 
 H         -1.0141930568        1.3310631994       -1.5191528931
 C         -0.1830922168        1.1091987041       -0.8508911287
 H          0.2831059600        0.1835955975       -1.1791703678
 C         -0.7134805695        0.9378184937        0.5742821914
 H          0.0465335814        1.2560139663        1.2772279124
 H         -0.9517071778       -0.1045240318        0.7393270910
 O          0.7336913596        2.1807697363       -0.9443619022
 H          1.6460236755        1.8198847563       -0.9159389887
 N         -1.9092368238        1.7642670539        0.7997734164
 H         -2.6925227626        1.4085806758        0.2374941780
 H         -1.6892768873        2.7492985497        0.4989242802
 H         -2.2093257193        1.7522510055        1.8021824585
 O          3.7291752889        4.5588917257        2.2360344208
 H          3.0483505584        4.1452857937        2.8091267042
 H          4.1198463386        3.8395218563        1.7232376428
 O          2.9098664421        3.2073998165       -2.9579377023
 H          3.0443046307        4.0153112095       -3.4933051536
 H          3.6212349413        2.5919950545       -3.1783190262
 O          7.7549188589        2.6453144719       -0.0671164856
 H          7.9023555851        1.6984570772        0.0959002919
 H          6.8707393952        2.7390497234       -0.4776204112
 O         -0.2548232943        2.6417004422        3.6503383507
 H         -0.4595755973        1.6883027552        3.6111179991
 H          0.7134908428        2.7567261832        3.6176698989
 O         -6.5635792287        2.6709043894       -1.6791502049
 H         -6.6999294377        3.5584722009       -2.0516995896
 H         -7.3131508720        2.1235907201       -2.0303020286
 O         -4.6096169081       -5.0451725694       -4.8515855844
 H         -5.4792360004       -4.6473709562       -5.0928521256
 H         -4.0529948295       -4.9518547772       -5.6263052174
 O          2.2552987789        1.3652031215        1.7149683912
 H          3.1791006190        1.5147882935        1.4208822909
 H          1.8163881522        2.2327914004        1.6051375559
 O          5.7957237644        5.0524828958        0.3163726699
 H          6.6526051971        5.2934836073       -0.0724843626
 H          5.3749857381        5.8624931856        0.6260742136
 O          1.3240034300       -1.1689309204        1.0779248585
 H          1.6029925054       -0.2388746160        1.1375520391
 H          1.9846690179       -1.6401905319        1.6194717485
 O         -4.1431857232       -3.2153034894       -2.8712540645
 H         -4.1452406106       -3.8692386060       -3.5864174750
 H         -3.7131900315       -3.6505478858       -2.1083531222
 O          0.8936884287        5.8747784786       -0.9684184805
 H          1.7638226932        5.4638122883       -0.8185590769
 H          1.0232378971        6.6169319359       -1.5974113588
 O          5.4861492782        2.9757337996       -1.5047051275
 H          5.6630613061        3.8527655296       -1.8873629251
 H          5.4451097302        2.3444778457       -2.2390245821
 O         -4.5610362583        0.8005569546        1.0384730202
 H         -3.9392073501        0.1052573468        1.3298182589
 H         -4.9832543958        0.4909813276        0.2188622032
 O          1.9026830915        0.1254365159        3.9872706198
 H          2.1124393162        0.6411747389        3.1712866603
 H          0.9402223137       -0.0208485596        3.9517785909
 O          2.2997937877        3.2399092241        4.0213330683
 H          2.1938277156        3.8084017989        4.8099722932
 H          3.1188623395        2.7208773689        4.1442702782
 O          3.9247038445       -0.9433308159        0.7702470127
 H          4.3270798829       -0.6951426365        1.6131197794
 H          4.0740292859       -1.8899863492        0.6633929608
 O         -3.7928137072       -5.5430343407        5.2502157954
 H         -2.9208874962       -5.4897473385        5.6629814335
 H         -4.1900952744       -4.6617126360        5.3723498225
 O         -0.2864664136       -2.6228407801        2.6280139773
 H          0.1395275855       -1.9779378786        2.0375148248
 H         -0.4046551174       -3.4392804786        2.0969903257
 O         -0.7452137050       -0.0100940785        3.6434616719
 H         -1.1498814974        0.1126123393        4.5167171515
 H         -1.4289347488       -0.4191261761        3.0851216762
 O         -1.2510613604        0.8269005754        6.1628537522
 H         -0.5527049117        1.3168468293        6.6546198290
 H         -2.1071153460        0.9918053176        6.5662765346
 O          6.7852451222        2.8676785141        5.5058340113
 H          6.3780484855        3.3799640649        6.2102997361
 H          6.0247898464        2.6100315758        4.9320356650
 O         -2.6430852644        4.9284726111       -1.8394288712
 H         -3.1948718477        4.1235865251       -1.7380625928
 H         -1.9345001979        4.7902978090       -1.1822894931
 O         -5.2318931937        2.9501411914        2.8523325350
 H         -5.8786073681        2.6682993955        2.1737141211
 H         -5.7185598272        3.0195919126        3.6976901900
 O         -1.9549096896       -1.8828950462       -0.2577092253
 H         -2.8290428396       -2.3109044472       -0.3466458860
 H         -1.3100644341       -2.4700851642       -0.6991049620
 O          2.0912418681       -1.9990842603       -1.3363518020
 H          1.7539192255       -1.7165232351       -0.4573811580
 H          2.0717068406       -2.9634788501       -1.3572479406
 O          9.5293166009        3.4064540540       -1.8947465793
 H          8.9826993357        3.4932261723       -2.7022248312
 H          8.8968525890        3.1087308058       -1.1933012336
 O         -2.9547272204        1.7632780411        3.3264443250
 H         -3.8356995894        2.0987057374        3.0483415453
 H         -3.0864151303        0.8725634989        3.7035559924
 O          3.0669346441        0.9272840230       -1.1149745530
 H          3.3210329603        0.2588437708       -0.4606433522
 H          2.9586855182        0.4756502572       -1.9614097446
 O         -0.5594637142       -1.6175779288        6.8618244243
 H         -0.7699414720       -0.7147460942        6.5336191192
 H         -1.4282385603       -1.9670630809        7.1412345609
 O         -2.4269664581       -3.0870985647        4.0721124020
 H         -2.0616121097       -3.7611903214        4.6700269416
 H         -1.6692132749       -2.7709382201        3.5355150929
 O         -0.1829912677        0.3191302582       -7.0453099141
 H          0.0775940470        1.2545500770       -6.8658967925
 H         -0.9989919865        0.3429438177       -7.5515524406
 O          3.9632235765        6.9221990662       -1.9666332422
 H          3.7657459441        7.8475518953       -2.1151370114
 H          3.8548364377        6.7828112296       -0.9935704004
 O          0.2846604936        2.7400309896       -6.1156492959
 H          1.1529658113        3.0451469525       -6.4438221724
 H          0.4755477246        2.3624880333       -5.2161317512
 O          4.6529527102       -1.4188481430       -1.8145160775
 H          3.6956296588       -1.5728165740       -1.6725913755
 H          5.0940768298       -2.1919726579       -1.4446768448
 O         -0.9181687637       -4.7741035228        1.2580881432
 H         -0.6185177843       -5.6819744627        1.1105595696
 H         -1.8681437788       -4.8155771197        1.4449780343
 O        -10.4381475952       -2.0015689500       -0.1231003900
 H        -11.0746161577       -1.2979333688       -0.3301914562
 H        -10.3919277746       -2.0857646142        0.8340030354
 O         -7.3208599774       -1.7505086863        1.0622485194
 H         -8.0875255766       -2.1612727155        1.5213908681
 H         -7.1866416856       -2.2901153306        0.2455736774
 O         -2.8288216339       -0.9879407267        2.0641660177
 H         -3.5516632646       -1.5379553204        2.3971240437
 H         -2.4501771105       -1.4593670740        1.2980615538
 O          0.9340288010        1.6536463472       -3.8326354240
 H          1.5656708399        2.2918158031       -3.4546867681
 H          1.4165596118        0.8176427856       -3.8594052876
 O         -1.6939563948        7.9395156725       -3.0369195088
 H         -2.4085928416        7.8885867213       -2.3834780323
 H         -1.8372498395        7.2109585897       -3.6522010971
 O         -6.4957193127        0.3249361912        2.6921604041
 H         -5.7474281310        0.6114067725        2.1016805496
 H         -6.8810761093       -0.4416890723        2.2505194896
 O          7.7406016983        0.4532958882        5.0853107564
 H          7.5193783866        1.2894827092        5.5304249113
 H          7.6250708299        0.6616352174        4.1227704021
 O         -2.9664780678       -4.6750594664       -0.9174514313
 H         -3.4116286309       -4.5571148417       -0.0678649119
 H         -3.1248340994       -5.5972871837       -1.1989612787
 O          1.2260520743        3.7939716280        1.2697955900
 H          1.2523471148        4.5509037934        1.8873109963
 H          1.9069712598        3.9628942599        0.5918410173
 O          4.6865060387        2.1059937162        0.9466604709
 H          4.5871055798        2.4737431045        0.0553507368
 H          5.2784845795        1.3495554373        0.7876824347
 O          0.2173560796       -6.6567630084        3.6401522740
 H          0.6550972552       -5.8258545350        3.3544716049
 H          0.8800487705       -7.3309551567        3.4425289454
 O         -5.4625567215       -6.0197659652        3.1410596345
 H         -5.4306215339       -6.8872315482        2.7292467117
 H         -4.9792818493       -6.0704061685        3.9800784986
 O          1.9335510047       -6.7632451143       -2.9017395075
 H          1.6294466533       -5.8330217674       -3.1072953280
 H          2.7312819321       -6.8828743989       -3.4247839165
 O          2.8204869281        3.0520572202       -6.8362482715
 H          3.6105292514        3.4871918291       -6.5008225384
 H          3.0285736013        2.0951252652       -6.8391818631
 O          3.1014431513        4.3529381422       -0.5810643355
 H          3.0471213120        3.8027891258       -1.3912070207
 H          4.0353249901        4.5078919831       -0.3896324368
 O          3.4205023269       -2.7254552658       -3.9674360215
 H          2.8793280611       -3.2416888016       -4.5851340965
 H          3.4044049905       -3.2485412098       -3.1370299292
 O         -2.1664481649        2.4429136656       -3.2614548619
 H         -1.8067936590        1.7120359255       -3.7953410041
 H         -1.4317871473        3.0605486337       -3.1187084148
 O          0.1264024449       -3.8725701079       -6.0050107816
 H         -0.7729128646       -3.6620145547       -6.2724302651
 H          0.5959808610       -3.0069966344       -6.0140178078
 O          5.2858125517        5.2948604640        4.2708028135
 H          5.0042440504        4.7290391009        5.0098641363
 H          4.7044523806        5.0689123654        3.5115990702
 O         -2.1899741481        5.4365841732       -4.4496855172
 H         -2.1470757343        5.1310978137       -3.5186589715
 H         -2.2641920673        4.6223405610       -4.9834992701
 O          5.2512688108       -0.3419452108        3.0584875989
 H          6.0852911683       -0.0136163431        2.6815523659
 H          5.4845496151       -0.8309557459        3.8664134474
 O         -3.2590193161        3.1365080525        5.6211334673
 H         -3.6624754417        2.4786978852        6.2008543197
 H         -3.0597220620        2.6632592698        4.7787538209
 O          4.3711883362        3.6960239353        6.4014074426
 H          3.6091395395        4.2367502502        6.6411178103
 H          4.0110162866        2.8030948025        6.2584277896
 O          0.5383501053       -1.2641522062       -3.3740590467
 H          1.1283125312       -1.5379443816       -2.6481071335
 H         -0.2060856394       -1.9101875806       -3.3900724767
 O         -1.2841261711        0.2728611936       -4.5600363396
 H         -0.5903621392       -0.0835951671       -3.9791297827
 H         -0.9211825125        0.2587009362       -5.4627716230
 O         -0.0498160689        4.0624862574       -2.6463147412
 H          0.3216185145        3.2672179003       -2.2139347300
 H          0.1089721506        4.7580036532       -1.9775991784
 O         -0.4223956470       -3.7731230531       -1.3128869532
 H         -1.2507635373       -4.2786518342       -1.2349706274
 H          0.1410602797       -4.0358771839       -0.5665352955
 O          8.1895284648       -4.6274453989        2.4152023400
 H          8.2063578051       -3.9689820657        3.1456615434
 H          8.9078115732       -5.2323338101        2.6050090278
 O          2.4857166626       -7.7677454682        2.4693935069
 H          2.6779763009       -7.5906579827        1.5412583476
 H          3.2606420210       -7.4966002728        2.9666050765
 O         -6.6664571210        5.4049595975        3.7858033494
 H         -5.6930194216        5.4884131385        3.8319151444
 H         -6.8960424240        4.7575242033        4.4587737603
 O          9.0431360211        3.5951839890        4.1418819564
 H          8.1935730915        3.3632439553        4.5694151737
 H          9.5308015379        4.1245058850        4.7715603807
 O          8.2651370295        5.6997314265       -0.7910399603
 H          8.6218013719        5.6009500921        0.1107959415
 H          8.8435701669        5.1174707691       -1.3087267886
 O          9.1024869150        4.4923784921        1.4590516787
 H          8.9896412018        4.3565427559        2.4076002569
 H          8.6106110130        3.7689735985        1.0332915947
 O         -3.0763959995        0.2728956865       -1.3549888111
 H         -3.2560058769       -0.0315414911       -2.2624706118
 H         -2.5911758823       -0.4689200505       -0.9496738391
 O          3.4799428912        0.4558581915       -6.5261536166
 H          3.1006602268        0.2114063313       -5.6650701993
 H          4.4392226777        0.3965694155       -6.4179268931
 O         -3.3132197912       -0.5470384090        4.7061634883
 H         -4.2685175028       -0.5503570534        4.8501024618
 H         -3.0378241307       -1.4679011625        4.5644862175
 O         -8.4883014141       -1.0627137565       -1.6199008105
 H         -9.1790626193       -1.4304054718       -1.0261503349
 H         -8.6682687142       -1.4427235123       -2.4992592929
 O         -8.3853888849        0.7327153360       -5.4180910218
 H         -8.0575906681        1.6604668646       -5.3850018891
 H         -9.3202751417        0.8045030612       -5.6273687518
 O          9.0011535880       -4.1905298104       -0.2249506966
 H          8.8158256396       -3.2958342669       -0.5934828993
 H          8.7204829191       -4.1718835766        0.7044968679
 O          8.7485125690       -1.8907140922       -1.5722617755
 H          7.9696645920       -1.8124493966       -2.1645105799
 H          9.5174429882       -2.0072347781       -2.1820393807
 O         -4.1284972904        0.9118910675        7.0949247176
 H         -4.5743318125        0.9895111092        7.9383199419
 H         -4.7873821137        0.5895917154        6.4488581637
 O          1.2268828718        6.0459732495        2.7699845943
 H          0.6659925908        6.0579568625        3.5572054269
 H          0.7283929845        6.5818515951        2.1155693315
 O         -7.9213466433        5.0551847368        1.4637410994
 H         -7.4434561444        5.6108672892        0.8339007968
 H         -7.5070168264        5.2350979322        2.3386686367
 O         -1.8001591426        4.6110252676        2.7334924477
 H         -1.3545869651        3.7912338804        3.0275792510
 H         -1.3843704088        5.3234347624        3.2473278164
 O          3.0492018861        6.8831729706        4.6916509581
 H          3.9681172991        6.5884780793        4.5720835743
 H          2.5971865014        6.7369298432        3.8450330385
 O          0.6825200600       -3.0754523861        5.0841898015
 H          0.2567770170       -2.4467061848        5.7092630748
 H          0.4235541770       -2.8169576975        4.1738829449
 O          6.7615609258       -2.2409436302        1.1721858963
 H          7.6910465177       -2.1388864169        1.4608308925
 H          6.2888256866       -2.6152933617        1.9261931992
 O         -2.2920835466       -2.2395800643       -6.2957763165
 H         -3.2336292452       -2.4357361042       -6.4474864628
 H         -2.2287284778       -1.2910571362       -6.4719113284
 O         -8.5919796122        1.7459526958        3.6009654477
 H         -7.8829381821        1.3569061151        3.0530722597
 H         -9.1511755654        2.2968828412        3.0127172251
 O          3.0494978369       -0.0728266212       -3.7985233633
 H          3.9005348584        0.3796746991       -3.7441023585
 H          3.2036662312       -1.0384660392       -3.8092244896
 O         -2.3203669632        3.2138984796       -6.0602108458
 H         -2.6188121905        3.5463151005       -6.9074649445
 H         -1.3469305899        3.0841547392       -6.1101550530
 O          6.0838640907       -1.5499789031        5.3553974264
 H          5.3829703414       -1.4309595259        6.0186596352
 H          6.6982662198       -0.7818721829        5.4332792307
 O          3.7914208216       -1.3341248916        6.7926148357
 H          3.1035171696       -1.1410237675        7.4638181881
 H          3.5467901964       -2.2135087879        6.4542209012
 O          2.8312451166       -4.6075803335       -5.9395484747
 H          1.8732799524       -4.6701624995       -6.0448591594
 H          3.1454039628       -4.0408202577       -6.6549417480
 O          5.1399489698        4.0484729688       -5.4609983746
 H          6.0023457823        4.4409925573       -5.5969857067
 H          4.5730431665        4.7163045272       -5.0297098830
 O          3.6604468619       -4.3751913803       -1.8773698159
 H          4.5231014169       -4.1426813755       -1.5059653729
 H          3.8379012630       -5.0534996894       -2.5579127943
 O          5.3044794950       -3.3091642489        3.3845448863
 H          5.6729863716       -2.8648472407        4.1596077890
 H          4.9120784782       -4.1517457060        3.7070751989
 O         -0.6435464585       -7.3327393138       -2.0667435436
 H          0.2324334935       -7.3420474208       -2.4799115960
 H         -0.4837013058       -7.2699256850       -1.1106492951
 O          2.7615816280       -2.2175161856        3.1499857008
 H          2.5051384308       -1.3922505624        3.6135444921
 H          3.7040514121       -2.3576846874        3.3044390555
 O          8.9650096326        0.2073151592        0.0489081397
 H          9.8197910931        0.6618034542       -0.0369982397
 H          8.9302877613       -0.5132473845       -0.6188318027
 O         -6.6931429810        2.8027052038        5.1108668791
 H         -6.3607933746        1.9633770667        5.4523332552
 H         -7.5320046370        2.5549716504        4.6642402062
 O         -3.1839619900       -1.9128003068        7.3009308543
 H         -3.3875224678       -0.9792688676        7.1612598545
 H         -3.7110775904       -2.3985905188        6.6488354684
 O        -10.3510648248        2.7350022100       -4.4803923107
 H        -10.1890171338        3.1611836057       -3.6241189656
 H         -9.6738684994        3.0984361910       -5.0606387495
 O         -1.5849632860       -2.7333492685       -3.7319660423
 H         -1.6387679988       -3.6920907873       -3.5982049425
 H         -1.7940586846       -2.5740904141       -4.6704109754
 O          1.9666875500        4.9371458310        6.0803418579
 H          1.0414757583        5.0937607913        6.2761586409
 H          2.3240373372        5.7569910281        5.6479883846
 O         -9.5913770376        4.2631439366       -2.2666399665
 H        -10.1355710747        5.0145246152       -2.0319545539
 H         -8.6949134423        4.6027445138       -2.4338798992
 O         -4.5523332568       -2.3445907873       -0.0815031916
 H         -5.1245477036       -3.0973019426       -0.2791523947
 H         -4.9548823346       -1.5817613543       -0.5258934516
 O         -8.5946809401        1.3622297682       -2.5923000037
 H         -8.6406408692        0.4983298086       -2.1256182199
 H         -8.5218882537        1.1515382950       -3.5313558699
 O         -0.7373883786        3.9058550490        5.9364152646
 H         -0.4861504948        3.3790050654        5.1374757197
 H         -1.6874765152        3.6912512432        6.0399525394
 O          6.0965376957       -6.4288328843        2.6131005664
 H          5.4543873589       -6.1725736165        3.2886052320
 H          6.7924995212       -5.7466206206        2.5946209974
 O          6.2048782489       -3.5518690221       -1.1182244526
 H          6.4585135664       -3.1196876556       -0.2744242937
 H          6.5895684127       -4.4441952748       -1.1033048322
 O         -7.2137903430       -3.9551006739        3.6645236683
 H         -6.9391236926       -4.8661413187        3.4939076858
 H         -6.5108541749       -3.4132945457        3.2459701429
 O          1.7703549102        8.6386269198       -0.0490875397
 H          1.5651600151        8.6143021937       -0.9903626376
 H          0.9534164512        8.3863853195        0.4064778062
 O         -9.3662667388       -4.3198358155       -4.1810001039
 H         -9.3848705113       -3.3397540353       -4.1130470702
 H        -10.2495685694       -4.5931039490       -4.4269966051
 O        -11.9078528365        0.1454932855       -1.1579637781
 H        -12.7837989832        0.2490409742       -0.7879669151
 H        -11.4018622320        0.9552810609       -0.9142779354
 O         -9.7624973609       -0.6348175046        4.0874720651
 H        -10.5407995108       -0.4311966685        3.5385325519
 H         -9.2639132480        0.2094299872        4.0561325036
 O         -7.7214170115       -1.9891835381        5.5034072773
 H         -8.5450139384       -1.5464112133        5.2566232889
 H         -7.6667168026       -2.7707114736        4.9270789148
 O         -3.5499022184       -4.3497444315        2.0007653795
 H         -3.1283360987       -4.0016891245        2.8171986977
 H         -4.1833249520       -5.0322108510        2.2815293805
 O         -4.9562271816       -2.3805128696       -6.6919638475
 H         -5.7114067204       -2.9108707668       -6.4107521973
 H         -5.2297278594       -1.4540302115       -6.6049539048
 O          8.6644742685        1.0570651381       -5.2944039824
 H          8.4316322025        1.9899879332       -5.2495442384
 H          9.1997567453        0.8980473178       -4.4966786999
 O         -1.8752918853       -5.4225868438       -3.5924927413
 H         -1.3972359280       -6.0710003029       -3.0473940052
 H         -2.7220772342       -5.8132364028       -3.8088239689
 O         -5.2281531092       -2.4312673490        2.6278197183
 H         -4.6926756531       -3.1149966041        2.1643810573
 H         -5.8356795820       -2.0921244891        1.9392686300
 O          9.9218597257        0.8889792200       -2.8468433505
 H         10.5800909038        0.3173257133       -2.4006978610
 H         10.0775556925        1.8067212720       -2.5623545662
 O         -3.3835627325       -7.2685016810       -1.5901477911
 H         -2.5097059969       -7.6158371634       -1.8026352128
 H         -3.5974146402       -7.5325413585       -0.6638275462
 O         -5.7950128673        0.2683050786       -6.3148871710
 H         -5.7560733527        0.4396963395       -5.3415939848
 H         -6.7381068686        0.2536534802       -6.5102047035
 O          0.9792912728        7.8014812421       -2.7759154641
 H          0.0431861328        8.0815751325       -2.7764092175
 H          1.0158800905        7.1765434625       -3.5257874913
 O          1.7259825025       -4.4114013816        0.2375611716
 H          2.6004753807       -3.9853367706        0.3350441508
 H          1.9290474803       -5.3047859241       -0.0971387391
 O         -1.1468446761        4.2600754879        0.2277559199
 H         -0.1972560453        4.0506805089        0.3742541261
 H         -1.4706112558        4.5958733258        1.0887351105
 O          3.5215237007       -2.3195318791       -7.3772485271
 H          3.6696315898       -1.6373250975       -8.0330549945
 H          2.8227145988       -1.9565002959       -6.7932886257
 O         -7.6265921658        3.2951521259       -5.2711469594
 H         -7.3830375412        3.6925859504       -4.4310172905
 H         -6.8202032233        3.3402040644       -5.8391249480
 O        -11.1081661236        0.3550337293        1.9596272538
 H        -11.3223256772        1.2684349532        2.1600964706
 H        -10.2528944144        0.3926648228        1.4876992890
 O          7.3068392338        1.0097726615       -2.4941192955
 H          8.2772846737        0.8974484977       -2.4883186962
 H          6.9760797047        0.7714819996       -1.6028108652
 O         -3.0533303376        6.8266394453        1.3779976995
 H         -3.3834319718        5.9122036564        1.2321375484
 H         -3.3952242774        7.0869695903        2.2340667212
 O         11.2851213656       -2.4575614007        0.3002177501
 H         10.6088481769       -2.2079083898        0.9608317295
 H         10.9649277901       -3.2731273168       -0.0966260333
 O          1.7901764893       -4.6814213740        2.8406792135
 H          1.6342037436       -4.6527636658        1.8692088974
 H          1.9623439217       -3.7531984962        3.0876198696
 O          9.2428763302       -1.6601058704        1.8788191015
 H          9.1533600514       -0.8521668031        1.3207195388
 H          9.5355894564       -1.3614796245        2.7602085189
 O         -5.6891278061       -6.0978164399       -2.4384996240
 H         -5.0005327964       -6.7309018716       -2.1836265811
 H         -5.3933629316       -5.7268728405       -3.2781243025
 O          5.0918174525        1.8072699547       -3.9617031269
 H          5.1165180773        2.6016582439       -4.5301936817
 H          5.5432732997        1.1267553974       -4.5086629754
 O         -5.9490233752        0.0314506597        5.2461337113
 H         -6.1229763175        0.1841710716        4.2837408035
 H         -6.5800534942       -0.6741632776        5.4876515587
 O         10.6092196302       -2.4000173443       -3.3898744096
 H         10.0883960120       -2.1164570550       -4.1728382499
 H         10.4914565336       -3.3663328424       -3.3782178418
 O          9.4025344390       -4.8200402135       -3.0619088726
 H          8.5376160331       -4.6242597046       -3.4634683016
 H          9.3323252429       -4.6354872897       -2.1189169599
 O          3.0545496398        1.2697772076        6.0713576783
 H          3.4781313266        0.4931167177        6.4593309451
 H          2.6121941045        0.9142975445        5.2667460262
 O          8.3728882984       -3.0259379756        4.5408735267
 H          9.1206550561       -2.4180895864        4.5564772669
 H          7.6372197041       -2.5738264087        4.9727113972
 O         -2.4256815011       -6.7207837645        2.9596256017
 H         -2.8458335108       -6.4238690317        3.7759422140
 H         -1.4727796311       -6.7618622673        3.1429269581
 O         -9.2979459888       -2.7636290179        2.4737687507
 H         -8.7115483726       -3.3658819710        2.9717388802
 H         -9.5082626609       -2.0309970555        3.0879401229
 O         -5.9458828982       -0.1780135558       -1.0916621914
 H         -5.8033036041        0.3283882303       -1.9038328324
 H         -6.8545231762       -0.5164837066       -1.1458112357
 O         -6.8996027110       -3.7733111399       -5.3012903189
 H         -7.7455893716       -4.1973329359       -5.1057400520
 H         -6.8015836171       -3.0720696007       -4.6156622743
 O          3.3046323477        5.5265999717       -4.2047666493
 H          3.4288725003        6.0945749066       -3.4247719672
 H          2.4068872446        5.6787035803       -4.5454556647
 O          6.7553048570       -4.2951973711       -3.8316192155
 H          6.5734078785       -3.7608078647       -3.0457524636
 H          6.5715458807       -3.7088024137       -4.5857716066
 O        -11.1731521175        0.1290707257       -3.8469758427
 H        -11.4955113684        0.0964491353       -2.9311351357
 H        -10.9523644172        1.0586187942       -4.0267880598
 O        -10.0561120382        3.2910311916        1.9622955891
 H        -10.2500140460        2.9791817113        1.0576710310
 H         -9.4988497698        4.0730882472        1.8586448998
 O         -4.1386540252       -7.4177667987        0.9277980385
 H         -4.6451126268       -6.5924610353        0.7634576894
 H         -3.4551625722       -7.2068503623        1.5850572227
 O         11.1906510073        1.7714014367       -0.0812474287
 H         11.7730158311        1.1858128428       -0.5813383404
 H         10.9763748037        2.5358868421       -0.6292024766
 O         -4.7222433478        6.0643876332       -3.7611243969
 H         -4.5603279586        6.6974452731       -3.0538272525
 H         -3.8616715407        5.9648725446       -4.2169941065
 O         -8.6928579660        0.5747997744        0.6876375435
 H         -8.1980829271       -0.2599020550        0.6303343468
 H         -8.0363316683        1.2832736046        0.8612919354
 O         -6.4012082997       -1.9631535137       -3.4346918547
 H         -6.2904086363       -1.0167013870       -3.5687525273
 H         -5.5180033460       -2.3229356859       -3.1938996053
 O         -0.7671914606        6.1963960044        4.6710529956
 H         -0.7946406992        5.3798509783        5.2351521769
 H         -1.3958196994        6.8184485582        5.0338258079
 O          7.3310864700       -6.0451901026       -1.2368517555
 H          7.6249801573       -6.2938276501       -2.1165552450
 H          8.0883145668       -5.6155456606       -0.7912378565
 O          0.6695333811        5.7368903766       -4.5462434200
 H          0.4573685099        5.0072268133       -3.9124283432
 H         -0.1484806853        5.8739507498       -5.0319101815
 O         -0.0054862239       -7.2741425359        0.6106961887
 H         -0.1093014369       -7.9158800585        1.3142874534
 H          0.9433444084       -7.2192517697        0.4081733451
 O         -8.1695379848       -5.1245728823        0.9158264576
 H         -8.4453314821       -5.4219426678        0.0395020178
 H         -8.7962881075       -4.4459792536        1.1794009397
 O          2.9744565743       -3.8657214676        6.0609674902
 H          2.6991029089       -4.2203519877        6.9063385186
 H          2.1448065012       -3.5658840923        5.6071815576
 O          3.9531686818       -5.4738134579        4.0961333354
 H          3.7021016910       -5.1023890651        4.9591887564
 H          3.1487753405       -5.3162129143        3.5396552943
 O          1.0857500064       -4.3564091721       -3.4484235269
 H          0.5838886626       -4.3049413179       -4.2772690786
 H          0.4705125493       -4.1068956987       -2.7313183376
 O          8.7965037337       -1.7869854183       -5.2534909018
 H          8.0025316087       -1.7704639695       -4.6947564217
 H          8.8928894411       -0.9034469061       -5.6192321402
 O         -6.0151829251        6.0025124377       -0.3481204668
 H         -5.3924450429        6.6750555911       -0.6734911205
 H         -5.4361065905        5.3707731446        0.1415298095
 O         -7.0187747344        5.1315748713       -2.6353000256
 H         -6.3852293535        5.5034948553       -3.2678473440
 H         -6.7421806776        5.5057709945       -1.7629826259
 O          7.4912113922        1.0587806010        2.5181603713
 H          7.1682292987        1.9764964127        2.4330308977
 H          8.4476208388        1.1056573952        2.3277805756
 O         10.1360286831        1.5424149877        2.5586633009
 H         10.6015425454        1.7873674337        1.7484074411
 H          9.9376149715        2.3584812291        3.0442335422
 O         -5.5018374570       -5.1856100748        0.2310352793
 H         -5.6440951745       -5.3721069421       -0.7093761979
 H         -6.3881902728       -5.1480488119        0.6266637713
 O          0.8038877968        2.0044205413        7.3510127538
 H          0.5668280822        2.9064669281        7.1024736461
 H          1.6497393434        1.8035754256        6.8931698002
 O         -5.2988309206        3.0381120400       -6.5256222441
 H         -4.8354558358        3.1276999156       -5.6670524680
 H         -5.3641544387        2.0876613606       -6.6958099653
 O         -7.0377640192        2.6153598964        0.9315218082
 H         -7.4439262527        3.4933864311        1.1083807173
 H         -6.7647603857        2.6231382526       -0.0107832665
 O         -9.2612196630       -1.6426418822       -4.1240219327
 H         -8.6587415457       -1.1522332630       -4.6937050468
 H        -10.0587523170       -1.0608507668       -4.0334260987
 O          5.0419407848       -6.1612192286        0.2358294247
 H          5.4141168731       -6.3828301504        1.1244316382
 H          5.7689739639       -6.3055716571       -0.3858660136
 O          6.1540537051        5.3708177330       -2.6275062124
 H          6.8841335777        5.6959110049       -2.0813098404
 H          5.4054780535        5.9706224796       -2.4672622503
 O          4.4098375185       -5.8229640611       -3.9989698699
 H          3.9124621864       -5.4516481895       -4.7469879389
 H          5.3032568103       -5.4418990202       -4.0496415281
 O        -10.3643264613        2.2309148975       -0.5297348144
 H        -10.0106468712        2.7812918633       -1.2454083364
 H         -9.6607090650        1.5900285290       -0.2998424507
 O          7.6685050462        3.3646912778       -3.8593581515
 H          7.0811239864        4.0819853383       -3.5872616196
 H          7.3154846486        2.5486538216       -3.4521557360
 O          1.6223428520       -0.7346949394        8.2635569225
 H          0.8492033249       -1.1657557873        7.8561267432
 H          1.4030197189        0.2010666609        8.3045006585
 O          6.1971811494        0.1435525081       -0.2113208884
 H          5.4703947905       -0.2678406067       -0.7209089842
 H          6.5664475421       -0.5790459937        0.3168976162
 O          4.2067029965       -3.6901569592        0.8547945047
 H          4.5441133703       -4.5590129744        0.5554474518
 H          4.4605433743       -3.6101099677        1.7791060583
 O         -5.6182555458        0.7757933658       -3.7052726421
 H         -5.3765513917        1.7216780448       -3.6886350013
 H         -4.7656228322        0.2804509337       -3.7188459644
 O          3.7058827790        6.8809591597        0.6761370760
 H          3.0156978789        7.5689818300        0.6316727016
 H          3.3928784425        6.1771667805        1.2659391538
 O         -3.7393703544        7.2251699006       -1.2568844019
 H         -3.4588696599        7.4221247309       -0.3510726757
 H         -3.3435882295        6.3312217055       -1.4431956620
 O         -3.9782660433        5.3877718172        4.1472297729
 H         -3.9403258038        4.7257129537        4.8519586171
 H         -3.3560642744        5.0473000297        3.4789952430
 O         -4.2395539676        4.4758655691        0.9257629382
 H         -4.5487727869        4.0155209695        1.7301118572
 H         -4.0573399509        3.7804452225        0.2656368626
 O          1.4108650190       -1.5505503120       -5.8473031025
 H          0.9210528253       -0.8868146558       -6.3554295950
 H          1.1928285900       -1.4032611317       -4.8933824366
 O          4.7518508508        2.1387322659        3.8818302702
 H          4.7566670928        1.1984930219        3.6195229779
 H          5.1909142938        2.6122679291        3.1491477799
 O         -0.3569928472        7.1950741131        0.9776175245
 H         -1.3125061581        7.0834198894        1.1136861416
 H         -0.0918725453        6.5985710313        0.2468199839
 O         -2.9441954532        0.5511160813       -6.8420142578
 H         -3.8875354411        0.3672457565       -6.8154449402
 H         -2.8145815517        1.3992829735       -6.3872199500
 O         11.7356324611       -0.5990108751       -1.5738016667
 H         11.8277751418       -1.1913253904       -2.3309604141
 H         11.6031418553       -1.2143107823       -0.8161120397
 O          5.5365757498       -2.5260001656       -5.5458651815
 H          5.0652182117       -2.5853029046       -6.3914549447
 H          4.8104889440       -2.5719925940       -4.8814771505
 O         -3.9815610630        2.7733324163       -1.1157898746
 H         -4.9176698985        2.6724978040       -1.3627858812
 H         -3.5493681506        1.9439568891       -1.3858845702
 O         -4.5589494368        3.2250178635       -3.9476374700
 H         -4.6376716740        4.1649120750       -3.7419774134
 H         -3.6293213502        2.9571884479       -3.7268875292
 O          6.5406542415        3.5988308808        2.4876696974
 H          6.3091024618        4.0149318442        1.6344678579
 H          6.4612577756        4.2923869436        3.1607803446
 O          6.8196608240       -1.4012487457       -3.3524862176
 H          5.9104463038       -1.5125389323       -3.0314755598
 H          6.9889599905       -0.4397367887       -3.2271871738
 O         -6.9387427084       -3.2403650113       -1.0744718674
 H         -7.5275989239       -3.9906368002       -1.2657331199
 H         -6.9048852960       -2.7034758572       -1.8808810882
 O         -3.5426661769       -0.7411755871       -3.7730293165
 H         -3.4397595124       -1.6782133694       -3.5206250578
 H         -2.6995096486       -0.4493969996       -4.1833985119
 O         -8.3080704498       -5.4238038469       -1.8748476336
 H         -7.4846855066       -5.8610565379       -2.1443235353
 H         -8.7375563961       -5.1122803524       -2.6885582097
 O          2.5346188323       -6.9109967262       -0.3293315860
 H          3.4819313254       -6.6894360994       -0.2319089726
 H          2.3568581216       -6.9266501350       -1.3011881888
 O         -4.9190990310       -3.0082299858        5.3910121082
 H         -5.8096836308       -2.8977396641        5.7343212687
 H         -4.9453035133       -2.7592942791        4.4521571134
 O          6.1023932642        0.0940274494       -5.6802585074
 H          7.0423746987        0.3343077370       -5.6968846558
 H          6.0409657850       -0.8831194589       -5.5826804040
 O         10.0458095986       -0.6651566567        4.2534147351
 H          9.3078588016       -0.2566293951        4.7427155942
 H         10.4583657252        0.0694872353        3.7770330372
 O         -1.0755682115       -5.0474207809        5.4781572236
 H         -0.3613662834       -4.3768854347        5.4853538836
 H         -0.7016889481       -5.7841391774        4.9729452771
