  101

 H          0.4630927076        1.1941025328        0.8323452957
 C          0.5529035760        0.5095402430       -0.0251092076
 H          0.4633421182        1.0989800596       -0.9466436098
 C         -0.5779259333       -0.5149488604        0.0205351875
 H         -0.4518492549       -1.1270258237        0.9278134321
 H         -0.4840892691       -1.1748678656       -0.8448928486
 N         -1.8603253885        0.1647702475       -0.0623309409
 H         -2.6131021662       -0.5138473280       -0.0751527666
 H         -1.9956541839        0.7570092262        0.7508171932
 O          1.7808081027       -0.1833448059        0.0209869106
 H          2.5006908393        0.4507195084       -0.0567171282
 O         -2.2257141242        1.6515753692       -2.1598274476
 H         -1.3891556253        1.9880046624       -2.5003233772
 H         -1.9844034104        1.0768483693       -1.3562256779
 O          0.0723353495        3.3604916977       -1.8452971663
 H         -0.6028704029        4.0409031859       -1.7764809216
 H          0.6097629290        3.4406014611       -1.0352449231
 O          1.9700824427        1.6857329400       -3.0317978625
 H          1.3115765230        2.3605469924       -2.8232215745
 H          2.6042982465        1.6968867373       -2.2958676058
 O         -0.7440923577       -2.1870920846       -3.1308230361
 H          0.0309606160       -1.6086111909       -3.3762528380
 H         -0.8881641631       -2.7528672988       -3.8907911782
 O          1.3834580577       -0.8411475922       -3.8041878394
 H          1.5229809210        0.1108204071       -3.6258155621
 H          2.0731314220       -1.2948728960       -3.2968221881
 O         -1.0920993622        3.6099998139        1.4348714155
 H         -0.1737135084        3.7422234050        1.1629536310
 H         -1.6467531019        3.8022488170        0.6555325307
 O         -2.6427858562        3.9771546505       -0.7982595207
 H         -3.5730796947        4.0311444986       -0.5682389740
 H         -2.5556405253        3.1644565160       -1.3400435314
 O         -3.1594888823       -0.8841404353       -2.9165105589
 H         -2.3092425335       -1.3518172485       -2.9936049290
 H         -2.9333055391        0.0569126534       -2.8573297701
 O          3.6305969952        1.5748168489       -0.7952340291
 H          4.3863929210        0.9847394090       -0.9238586438
 H          3.9473869159        2.3363726321       -0.2617872200
 O          5.1798214215       -0.7229548085       -0.9887387917
 H          4.3976608546       -1.2090947273       -1.3498016575
 H          5.9218285369       -0.9233999662       -1.5581671322
 O         -4.1962652448       -1.6576404069       -0.5783095994
 H         -5.0943355272       -1.2839031166       -0.5986906940
 H         -3.8453365756       -1.4764799094       -1.4811292667
 O          2.9234361163       -1.8890078264       -1.7450484589
 H          2.7614881739       -2.7483175264       -1.3145773627
 H          2.3692036112       -1.2603387589       -1.2401259515
 O         -0.2882714796       -3.9499669925       -1.0471622765
 H         -0.9886646970       -3.7840493833       -0.3841022097
 H         -0.4592474760       -3.3293985291       -1.7774977714
 O         -2.2546565930       -3.2617307571        0.6743292505
 H         -2.0965202973       -2.6798037455        1.4328215037
 H         -2.9762982011       -2.8665717249        0.1648481572
 O         -4.7795805759        1.8513047309       -0.6809191338
 H         -4.5141153974        1.6907191790        0.2505207230
 H         -4.0289246051        1.6235930158       -1.2402794232
 O         -1.8007292144        1.3866318018        2.6821651883
 H         -1.4888905726        2.2342306879        2.2861450429
 H         -2.7642467317        1.4892527192        2.7255051109
 O         -1.8860280946       -1.4287625292        2.8189119890
 H         -1.0844430199       -1.7206152874        3.2786430776
 H         -1.8292969700       -0.4586811890        2.7884417230
 O          4.4832991134       -0.3380897751        1.6678786463
 H          3.8987313524       -1.0793483454        1.8966044145
 H          4.7747275529       -0.5081082403        0.7567938811
 O          2.3782502652       -2.1278829240        1.7598204960
 H          2.3426287319       -2.9077329970        1.1752467919
 H          2.0365861126       -1.3958053900        1.2033848612
 O          0.6558283922       -1.9155127113        3.7569799351
 H          1.2978279904       -2.0635901518        3.0208679377
 H          1.0011307381       -2.3802204170        4.5178320846
 O          2.1509366044       -3.9791743991       -0.2040352038
 H          2.4077258792       -4.9003303312       -0.2138710583
 H          1.1913833853       -3.9608670262       -0.4997022213
 O          2.6875784403        1.7857855177        2.1428450067
 H          2.0272461734        1.5098188193        2.8125686002
 H          3.2926164467        1.0341329177        2.0280724611
 O          0.7583161006        0.8708478087        3.7758884082
 H         -0.1347177676        1.1536786218        3.5345117779
 H          0.7264482866       -0.0973481641        3.8346223862
 O         -4.4342455726        1.2376252931        1.9336377212
 H         -4.4167006442        0.2549684795        2.0107147891
 H         -5.3490251492        1.4448494458        2.1749056591
 O         -6.5060602027       -0.1609851594       -0.6674253757
 H         -5.9408140617        0.6502518628       -0.7331095164
 H         -7.1248755010       -0.1244795864       -1.3963618959
 O          1.5437979832        3.6294025917        0.4637638678
 H          2.2874659190        4.2251824944        0.3433932614
 H          1.8938786227        2.8989965015        1.0111882223
 O          4.4587013233        3.4892686295        0.9178968004
 H          5.3435650803        3.1457078594        1.1030546293
 H          3.9063213956        3.1228209844        1.6269378034
 O          6.3951673182        1.7048788349        1.7059779144
 H          7.2007832491        1.4224291281        2.1374546804
 H          5.7492066163        0.9927422485        1.8287490074
 O         -4.5607786108       -1.4315258979        2.2324441094
 H         -4.5049869232       -1.7467271914        1.3204151616
 H         -3.7057879532       -1.6302776085        2.6430714343
 O         -6.9901694996        0.2501921145        2.0905268148
 H         -6.9984881283        0.0806160117        1.1359264745
 H         -6.5540148725       -0.5157407924        2.4772686837
