  451

 H         -0.0000000000        0.0000000000        0.0000000000
 O         -0.7355730577        0.0587759738        0.6895210461
 H         -1.4101768361        0.7512087738        0.3532589133
 H         -0.4345968176        0.1876909804        1.6816337869
 O         -0.2148343237        0.2611726503        3.0845206699
 H          0.4092232243        1.0138664848        3.2636047134
 H          0.2349735223       -0.5701973902        3.3571788618
 O         -2.4882382533        1.4329627486       -0.3912632185
 H         -2.5454922673        0.8404383169       -1.1650238195
 H         -2.4201338697        2.3609438112       -0.7061175243
 O         -4.6897028892       -1.2871027331       -0.4644823414
 H         -5.5533326342       -1.1088282111       -0.8820376676
 H         -4.5413992390       -0.5686320571        0.1655040204
 O         -2.3744523678       -2.0847963241        1.4678977517
 H         -3.1630633324       -2.6634172886        1.4648133296
 H         -2.7399858225       -1.1811370525        1.4923310991
 O          0.6472356005       -0.1059980007       -1.4158265194
 H          0.3915404533       -0.9830594978       -1.7181119218
 H          0.2538189934        0.5332312290       -2.0561466794
 O         -4.8444351361        4.3197438824       -1.9573131298
 H         -3.9942670699        3.9661926628       -1.6214055575
 H         -5.1478175378        3.7640223915       -2.7162303387
 O         -4.5489491695        0.7602961161       -2.6680478265
 H         -4.7857507548        0.9760871436       -1.7351043055
 H         -4.7962431384       -0.1669993561       -2.8097276433
 O          0.5200421234        3.0380471555        0.5445783703
 H          0.8761293008        3.7653801654        1.1076317210
 H          1.1437634581        2.2858801137        0.6688526883
 O          1.3799346202        2.2853028362        3.5807049585
 H          1.9279472864        1.8566706412        4.2687593199
 H          0.9904876280        3.0852131626        4.0039194542
 O         -1.6567088851        2.7594914747        1.9382873391
 H         -0.8672803503        2.8717173348        1.3609236049
 H         -2.4572076827        2.9500151394        1.4231872092
 O         -4.2130398554        3.2050949275        1.3386658445
 H         -4.3537438728        2.7802076087        2.2078124673
 H         -4.4886020582        4.1352378908        1.4675958798
 O         -2.3988141332       -0.7435490405       -1.9210204155
 H         -1.7292156827       -1.3445669516       -1.5374023039
 H         -3.2523489478       -1.0196339152       -1.5448934466
 O         -0.3056059238        1.5756689395       -3.1577252208
 H          0.2212286543        2.3495754834       -2.8655803875
 H         -1.2184099926        1.9182958625       -3.2724379829
 O         -2.3431502990       -0.4149413176       -4.5800668936
 H         -2.3141545023       -0.5227409864       -3.6072472995
 H         -3.2811942574       -0.3927893219       -4.8344348929
 O         -0.7638406640       -2.4251907588       -0.6470565583
 H         -0.9072514476       -3.2906014271       -1.0625656465
 H         -1.3319160485       -2.3671932329        0.1520921973
 O          1.4457660717       -1.7443732777        0.8219850457
 H          0.6887386065       -2.0191721252        0.2799048946
 H          2.0979493281       -1.3401205852        0.2273082902
 O          2.1592598621        1.0181814429        0.6362292058
 H          1.9607242066        0.6698876749       -0.2447865390
 H          3.0815772540        1.3354044097        0.5812132562
 O          0.8871161035       -0.1538093859       -4.7807428054
 H          1.7983561974       -0.2038571206       -4.4052884119
 H          0.4665600522        0.6153167714       -4.3443626617
 O         -0.1940825532       -2.1731594044       -3.5596336294
 H          0.5415261060       -2.5010599817       -2.9945301328
 H          0.1329817858       -1.3638410359       -4.0263942156
 O          0.7804162192        3.6537963746       -1.9849156676
 H          0.6905585381        3.4653246028       -1.0177032391
 H          0.0899802334        4.2852219384       -2.2258484201
 O         -2.3643119919        3.9649339771       -0.9644681699
 H         -1.9384949715        4.1533572286       -1.8166135179
 H         -1.8948932586        4.4976915277       -0.2897946152
 O         -3.7263415319        0.2077534629        1.7628181481
 H         -3.3807261981        0.2400668346        2.6838447025
 H         -3.3576951795        0.9413163232        1.2499547452
 O         -4.9927577737       -1.8993497293       -3.1687688669
 H         -5.5686947278       -2.5235045850       -2.7081567959
 H         -4.1789487804       -2.3907504600       -3.3709079153
 O          0.0975912729       -3.9157529061        1.9843620116
 H          0.5238230252       -3.2026781240        2.4913716276
 H          0.6243732273       -4.0577243463        1.1751649668
 O         -0.9704848231       -4.8970316646       -1.8712498085
 H         -0.6162662186       -5.1769010112       -2.7416055910
 H         -1.6881780822       -5.5183589610       -1.6537308700
 O         -3.4062987508       -3.5462382030       -1.1508885678
 H         -2.9749636586       -3.9114779820       -0.3499863842
 H         -4.0107691164       -2.8460297643       -0.8636539271
 O         -6.3731123694        0.2635701837        2.2977396815
 H         -6.6469464020        1.1972162130        2.2502777506
 H         -5.4247582309        0.2589261579        2.0448174591
 O         -1.0090579006        5.4686660167        0.7351598904
 H         -0.2080467709        5.7501171212        0.2244804922
 H         -0.6424089730        5.2787902917        1.6104459998
 O         -1.7323946925       -2.9021614845        3.8947371269
 H         -1.8265276405       -2.5137703833        2.9939453745
 H         -0.8352209923       -3.2517270658        3.9563464567
 O          0.3505077795       -3.6387279379       -5.6816450442
 H          0.1454376288       -3.1207414480       -4.8642714188
 H         -0.1902203002       -3.2085635713       -6.3590477177
 O         -4.7152709870       -3.3606269855        1.5294168271
 H         -5.2310336119       -3.4584805313        2.3478048420
 H         -5.2729000274       -2.7838138365        0.9780033900
 O         -2.6790032251       -0.1636644096        4.1384538960
 H         -1.7500039154        0.0113441546        3.9026497816
 H         -2.8323034630        0.2368062533        5.0076549516
 O          1.1512207147       -4.7701967472       -0.3236921401
 H          1.7337747484       -5.5302402756       -0.5373177085
 H          0.3130972965       -4.9642344948       -0.7934115138
 O          1.8021610240       -2.9454741789       -2.0932107927
 H          2.3593905519       -2.2184739639       -1.7379103096
 H          1.5867688953       -3.5366635681       -1.3350704664
 O         -2.6048215472       -3.2722303960       -3.6452794182
 H         -1.7410022893       -2.8123319552       -3.6609636047
 H         -2.7727114968       -3.4432241642       -2.6937726528
 O         -1.7472763452        2.3996061210        4.5380780792
 H         -1.0647374727        1.8613178981        4.9872117884
 H         -1.4797174268        2.4618462441        3.6052616849
 O          2.8768008071        1.6971581548       -1.9819698502
 H          2.4090248038        1.8580837665       -2.8134686753
 H          2.8404422621        2.5287671189       -1.4637838694
 O          1.2395929754        4.9352829322        2.1996899032
 H          1.5920602045        5.7814031010        1.8496624450
 H          1.7663749364        4.7685771473        2.9931047576
 O          3.4598952718        3.0396489314        2.0487530601
 H          4.1169762585        2.4289857165        2.4438092533
 H          2.6326824096        2.8595261213        2.5397010930
 O         -1.1390493671        5.1161267324       -3.1340502460
 H         -1.9890218475        5.6054973853       -3.1998090297
 H         -0.9697789169        4.7599478082       -4.0358384958
 O          4.7772844631        1.5212253184        0.1649527880
 H          5.3819338530        0.8608440304        0.5394258890
 H          4.8816992545        1.4939182185       -0.7921847377
 O         -2.7045457630        2.6417908433       -3.2916948545
 H         -2.9315046115        3.1771846621       -4.0696364416
 H         -3.3302494253        1.9054301528       -3.2275706399
 O          2.1071738477        2.5203096490       -4.4387413731
 H          1.5799611003        2.5746971359       -5.2675046203
 H          2.3740949141        3.4239046444       -4.2356311170
 O          3.2561357289       -0.9654556082       -1.0425305184
 H          3.0897340757       -0.2340496445       -1.6602127327
 H          4.2236937870       -1.0658489789       -0.9908053933
 O         -1.5889940597       -1.9866304147       -6.6151041493
 H         -1.7247001534       -1.4680719651       -5.7894942334
 H         -2.4018236177       -2.4948388025       -6.7372594764
 O         -4.4228907926       -2.1383010817        4.9261853847
 H         -4.5963913134       -3.1077460892        4.9193120259
 H         -3.5919825789       -1.9817520615        4.4540916943
 O         -0.0065932946        0.8739618482        5.7559389217
 H         -0.3585171607       -0.0006521817        5.9982201252
 H          0.9612332338        0.8314354211        5.7437168222
 O          3.2958729360       -0.3147195610       -3.7188351458
 H          3.8724021209        0.1849168070       -4.3069166984
 H          3.7531397031       -1.1531245280       -3.5294160170
 O         -6.2416132609       -3.9835012435       -1.6666388150
 H         -5.9684243026       -4.6345784441       -0.9801368699
 H         -7.1628276815       -3.7871224234       -1.5001255723
 O         -2.8567240780       -5.2728574302        3.3582735380
 H         -2.4543736366       -4.4474633571        3.7064427609
 H         -2.7872950221       -5.1724766610        2.3830007987
 O         -5.3014789897        1.3764769179       -0.2494202412
 H         -4.9126384005        2.1317981423        0.2297228136
 H         -6.2649105981        1.4504889813       -0.1990124819
 O          2.7667642579       -0.2588187654        2.9529063428
 H          2.4565935023        0.1536677728        2.1306546434
 H          3.5706992108       -0.7626702993        2.7325145847
 O         -0.6052671658        4.4963066612       -5.6374358152
 H          0.1705547237        5.0913198736       -5.6851732877
 H         -0.3313778518        3.6585613199       -6.0398074835
 O          0.0250708728       -5.8292504824       -4.1685604917
 H          0.9683082948       -5.8271313431       -3.8977219329
 H          0.0097067098       -5.1645746252       -4.8835768345
 O          1.3253631103        0.1488273943       -7.3979721577
 H          1.0996998403       -0.0198147493       -6.4535600117
 H          0.5011415783        0.0595872144       -7.8896544737
 O          1.0384475602       -1.9923734775        3.7751183534
 H          1.7985225636       -1.4462057546        3.4405423702
 H          1.2172991607       -2.1345261503        4.7187472397
 O          2.5144441219       -5.1861034057       -3.4930034158
 H          2.2927469245       -4.3558334443       -3.0248010374
 H          2.9323610920       -4.9304130490       -4.3183401647
 O          3.0323578111       -3.2105555086       -5.4192520031
 H          3.2473446077       -2.3927303778       -5.9091115715
 H          2.0891288077       -3.3782250270       -5.6028786257
 O         -4.3367482935        2.2700625325        3.8444288110
 H         -4.8357195283        1.5428296486        4.2684743376
 H         -3.4033660387        2.1885499146        4.1333307777
 O          4.2927020812        1.4401300974       -5.5578623634
 H          4.8015971281        2.0985343842       -6.0308217617
 H          3.4919731560        1.9022034520       -5.2149341597
 O         -4.9298913409       -0.7094387277       -5.5459375843
 H         -4.6784494860       -1.5039216188       -6.0505558261
 H         -5.1866365903       -1.0766392191       -4.6766627255
 O         -2.1772037321       -4.7463097335        0.8617473369
 H         -1.8661345679       -5.6047359581        0.4953177439
 H         -1.3880589395       -4.3241788860        1.2537670342
 O         -1.6568903953        1.8186826726       -5.9226805614
 H         -1.3647130127        1.4347966347       -6.7634680390
 H         -1.6717380882        1.0747760012       -5.2931023501
 O          3.0355463565       -3.6606905918        1.5572311962
 H          2.7134100379       -4.1264069680        2.3468384806
 H          2.3804516134       -2.9502529787        1.3500754061
 O          2.2442143530        7.3403279906        1.7809699540
 H          3.0242142170        7.2975792544        1.2127177395
 H          1.5465873844        7.7837621535        1.2631448986
 O         -1.1728601580       -1.5253946823        6.1319422712
 H         -1.9611220952       -1.5879527153        6.7056695698
 H         -1.4248168481       -1.9534562259        5.2910719981
 O          4.4057746731       -2.6944782550       -3.1669719276
 H          3.8721044592       -3.0220944578       -3.9167687555
 H          4.0669880751       -3.0904359853       -2.3442304799
 O          3.7365128472       -0.9366716900       -6.7687647574
 H          4.0106060962       -0.0919580742       -6.3637917439
 H          2.9398989391       -0.7035311759       -7.2694725231
 O          1.2424286110        5.9681712954       -0.4615084778
 H          1.9461858668        5.2967016673       -0.5047850839
 H          1.1553197671        6.4209899443       -1.3128110501
 O          2.1183140350       -4.7243991716        3.8391924542
 H          2.6476662851       -5.5432319468        3.9803241556
 H          1.3018726569       -4.8032638501        4.3513225140
 O          1.3031024326       -2.3051852216        6.5652582998
 H          0.3490643719       -2.0883891085        6.5235616639
 H          1.6512208797       -1.5979585821        7.1519818481
 O          0.4509886303        7.2562971716       -2.7569619563
 H         -0.0749281777        6.4625292518       -2.9878052057
 H         -0.1981209517        7.8487554234       -2.3601548607
 O          4.8058935456       -1.8491473559        2.2323579569
 H          4.2337644142       -2.5502293355        1.8507962798
 H          5.2843701876       -2.2958808007        2.9619877562
 O          5.2130317045        1.5007079882        3.3114866913
 H          4.7704643740        0.7757302031        3.7852149185
 H          5.8124011515        1.0700399309        2.6807390672
 O         -0.0182547074       -4.5721249386        5.5476655631
 H         -0.9307150734       -4.4816764610        5.8783255062
 H          0.5271396633       -4.0437186111        6.1432319725
 O          2.6900081277        1.1405178512        5.6731641539
 H          3.2834058388        0.4161000504        5.3938000041
 H          3.2896025009        1.9202562772        5.7823560814
 O          3.2081233226        5.2086395519        4.2145842139
 H          3.9499000264        5.5009974528        3.6666304678
 H          2.8891363650        5.9686234088        4.7096923850
 O          5.9434522874       -1.0803223473       -1.0656568787
 H          6.2552257066       -1.8771071347       -0.6057956092
 H          6.5482455600       -0.3513901003       -0.8441167753
 O         -4.9980448701        5.6584629822        1.9869246846
 H         -4.1904585934        6.1938512418        1.8416144217
 H         -5.5658504463        5.9430660659        1.2507209547
 O          3.6485832286       -3.1733115457        5.3613303249
 H          3.0940125145       -3.6791724661        4.7255711886
 H          3.0629712746       -2.9780932614        6.1006162244
 O          4.0210582313       -3.9995521831       -0.8249778926
 H          3.5402126496       -4.0725313401        0.0249838580
 H          4.1337254031       -4.8832604625       -1.2161384883
 O          2.5440944620       -6.8286329745       -1.2961955923
 H          1.7681392180       -7.3653594790       -1.5756947937
 H          2.9409295624       -6.4946673837       -2.1124681713
 O          0.5668718080       -6.6089329837        2.1121837175
 H          0.1319837599       -6.9620921806        2.9190990947
 H          0.4687355789       -5.6412798547        2.1932805909
 O          5.3840690385        1.7716492223       -2.7485018522
 H          5.6674274034        1.0082651137       -3.2941333879
 H          4.4129908819        1.6643898393       -2.5907622230
 O          0.2513735304       -7.8971609946       -2.0785478739
 H         -0.3459627399       -7.6667248882       -1.3415549848
 H         -0.0698637732       -7.4489415501       -2.8654571197
 O          2.7813212028        4.9327071897       -3.1730301168
 H          2.1553615212        4.4915250419       -2.5586318596
 H          3.0371168089        5.7978736700       -2.7689208247
 O          6.3350673271       -0.4896980271       -3.7164876931
 H          6.1510884770       -0.9503539959       -2.8812697074
 H          6.2132618498       -1.1350598431       -4.4308232660
 O         -3.3936935944       -6.1467920795       -1.7514232048
 H         -3.6225728709       -5.1996299463       -1.7479570117
 H         -3.3257113343       -6.3986772940       -2.6862522160
 O         -5.2651384160       -5.6924056518        0.2129013455
 H         -4.5749562917       -6.0469410050       -0.3696532216
 H         -4.8783912027       -4.9492492122        0.7137837862
 O         -4.3260939428        1.9864585807       -6.0957924254
 H         -3.3418935031        1.9359022175       -6.0563737452
 H         -4.6359822444        1.0725089394       -6.0670467965
 O          3.1088555761        3.9393519734       -0.4947300418
 H          3.9654820166        4.2876977010       -0.8061595508
 H          3.2447518339        3.6286083899        0.4192080062
 O         -3.9695502020       -3.1647065085       -6.0412807995
 H         -3.4743915313       -3.2122014226       -5.2039696949
 H         -4.7083344025       -3.7657891428       -5.8850510229
 O          4.5505668777       -0.6485868676        4.9583289667
 H          5.5184445271       -0.6754596252        5.0221692752
 H          4.2383208865       -1.5622724605        5.0795631290
 O         -3.5288569362        6.2610413544       -3.3366712970
 H         -4.0856358581        5.6352441896       -2.8331399209
 H         -3.6156123677        5.9673586029       -4.2549680237
 O         -3.5074297871       -1.6424774926        7.3907415385
 H         -3.9829050660       -1.8558539739        6.5570672218
 H         -3.6513005936       -0.6964872029        7.5152145439
 O         -1.1201982311       -7.0472087061        0.1070693195
 H         -0.4310186374       -7.0290259396        0.8125968887
 H         -1.8730279913       -7.5419984916        0.4659225528
 O         -3.0041190833        7.1511114228        0.9616597760
 H         -2.6823382598        7.7484627262        1.6481638078
 H         -2.2745338220        6.4819017839        0.8770671252
 O         -2.5609467949       -4.2430738189        6.4550773670
 H         -3.3705870015       -4.6359845869        6.1144228550
 H         -2.8243571069       -3.5779821930        7.0968190877
 O         -1.9795291683        7.8170385211       -1.5185727001
 H         -2.4708143365        7.6965065170       -0.6906980186
 H         -2.5589434508        7.4988571743       -2.2212651751
 O         -1.9731987948        5.0208663641        3.4729721926
 H         -1.9401287200        4.2325305196        2.8987707813
 H         -2.8263674665        5.0019588591        3.9487097356
 O         -0.8871618878       -6.9317371849        4.2821846845
 H         -1.6693639536       -6.4206011175        4.0044835985
 H         -0.4660964817       -6.3965711580        4.9642588454
 O         -6.8831158060        4.0433032624       -0.2396224547
 H         -6.1076679922        3.9993818622       -0.8422769651
 H         -7.1584253255        4.9607867967       -0.2663734736
 O          0.3735045185        4.4531234968        4.7750602131
 H          0.2656732732        4.1426158240        5.6993701611
 H         -0.5150890692        4.6390020458        4.4232577044
 O         -4.4418912022        4.8320714115        4.5557266612
 H         -4.5470664784        3.8822390758        4.3362568939
 H         -4.8545356312        5.3228541511        3.8338022116
 O         -5.7202681041        0.2279311605        4.8990142289
 H         -5.2406925258       -0.6192414249        4.9468425241
 H         -6.1990017183        0.1878282713        4.0488089682
 O         -4.9316844545       -4.7322493896        4.8639556652
 H         -4.2706093851       -5.0850660576        4.2281863350
 H         -5.7712546787       -4.6752779752        4.3965471134
 O         -7.1625177307       -0.7286343794       -1.5127148020
 H         -7.5898490584        0.0337092952       -1.0978143030
 H         -7.2024182226       -0.5329036348       -2.4665751901
 O         -5.7642591532        2.7257699072       -3.8752860198
 H         -5.3732213295        1.9388098070       -3.4255774842
 H         -5.3535572583        2.7192286897       -4.7569629844
 O         -7.0098770091        2.8892098576        2.2233644279
 H         -6.7524430375        3.4625325302        2.9450063344
 H         -6.8623583768        3.3823645891        1.3942359373
 O         -3.5581705713        1.0154364455        6.6012463680
 H         -3.3821534487        1.9769860540        6.7089312707
 H         -4.4766721316        0.9405832532        6.3169030978
 O         -7.1077727638       -1.9875885856        0.9687762833
 H         -7.3475778499       -1.7614107368        0.0628566550
 H         -6.9414207093       -1.1377968276        1.4181244817
 O          3.1724302958       -6.6768239487        1.3146431430
 H          3.1252222318       -6.9473141036        0.3866240257
 H          2.2435801571       -6.6597368101        1.6156532245
 O          5.1739683128        4.0861227653       -4.1361851906
 H          5.3187252203        3.1980352285       -3.7584846732
 H          4.3653785524        4.4235171904       -3.7116848996
 O          5.5105548013        4.8077415373       -1.3753309086
 H          6.1177591030        4.3406686445       -0.7666024744
 H          5.7985819335        4.6694991606       -2.2853243098
 O         -1.2305817554        7.6054928449        2.9730345783
 H         -0.4474176409        7.7137209495        3.5477136693
 H         -1.5262913925        6.7001072733        3.1697627114
 O          5.4832807537       -5.3107207012        2.0028405317
 H          4.6354230230       -5.6633726641        1.6809627070
 H          5.9022605965       -4.8423346677        1.2711693601
 O         -2.8034887852       -5.9198794128       -4.3575739794
 H         -1.9546479367       -6.2934011571       -4.6069942648
 H         -2.6449185313       -4.9667284907       -4.2109047289
 O         -5.3985577349       -4.6776281721       -4.2701163457
 H         -4.7776373713       -5.4118302237       -4.2743651709
 H         -5.7445734622       -4.5926926326       -3.3705475983
 O         -7.2536154976        0.3167575402       -4.0253807670
 H         -7.0840414461        1.2688097043       -3.9799744150
 H         -6.8394690775        0.0088290612       -4.8359360459
 O          6.5212378758       -0.0356720749        1.4844911438
 H          7.3766356166       -0.4731939011        1.5354932830
 H          5.8733000071       -0.7495270580        1.7047484695
 O         -6.7192316609       -3.2730658969        3.3407585383
 H         -7.1746972316       -2.9759641631        2.5380890307
 H         -6.6917530487       -2.5215972585        3.9378579003
 O          5.1386626127        5.0969984213        2.2358905092
 H          5.9678848396        4.7118466281        1.9355639236
 H          4.4744740721        4.3769281148        2.1463405360
 O          1.0652133293        7.1593553084        4.3204019714
 H          1.5650151125        7.2469993646        3.4940330349
 H          0.8726934972        6.2146590756        4.4514530314
 O         -3.2928916723        4.4577562847       -5.3369675002
 H         -2.3734062230        4.4866949473       -5.6559301570
 H         -3.7896765747        3.9296127535       -5.9669750406
 O          1.5363985083        6.0553861623       -5.2309107476
 H          1.9901424389        5.6367495786       -4.4635775430
 H          1.2542839232        6.9118983283       -4.9032477469
 O          3.2316708720        7.3164146653       -2.2007569043
 H          3.5312160279        7.3600794424       -1.2818763770
 H          2.3840416362        7.7671911831       -2.2652398758
 O          6.6918181741        3.3623167063        0.5549427937
 H          5.8937765546        2.7933462683        0.5885073656
 H          7.3844149074        2.7771613054        0.2318549750
 O         -2.9034277477        3.6081335415        6.5989272463
 H         -2.3653388720        3.3840349854        5.8131453123
 H         -3.5269951777        4.2773153460        6.3019810736
 O          1.1572368009        2.7649729552       -6.8702818499
 H          1.9640067986        3.2623753356       -7.0615943425
 H          1.2835369057        1.8593582046       -7.2216445836
 O         -0.0988600563        3.3022087691        7.1333283471
 H         -0.0768739081        2.3529510182        6.9367717055
 H         -0.9876211906        3.4971516641        7.4437490333
 O          3.4849750737        4.2166340653       -6.3404311164
 H          4.2156812117        4.2579119814       -5.6983003497
 H          2.9850861593        5.0310679062       -6.2207959530
 O          4.4744643452        6.7641129579        0.2311592908
 H          4.7374143594        6.2950306069        1.0485221639
 H          4.9446542656        6.2810967004       -0.4649695611
 O          1.7664423388       -0.1086926996        7.9786168039
 H          2.2170760454        0.5092368376        7.3814082407
 H          0.9022597810        0.2738707976        8.1791503586
 O          0.0326357305        8.3559863748        0.6292685776
 H         -0.4712554257        8.1550809894        1.4384844777
 H         -0.5486628234        8.2042833472       -0.1197168930
 O         -8.0341674663        1.5727963470       -0.1742015894
 H         -7.9234257732        2.5074587096       -0.4115577559
 H         -8.3065045541        1.5581174663        0.7464785773
 O         -1.3322497111        0.1852399139       -8.0795460458
 H         -2.1271200207        0.3235938318       -8.5906534012
 H         -1.4363616904       -0.6776898193       -7.6119588707
 O         -1.0935426318        0.4866045683        8.2283892758
 H         -1.8445575007        0.7739498931        7.6980322454
 H         -1.3349250431       -0.3551713403        8.6146683045
 O          6.4958395326       -3.5785399504       -0.1143770157
 H          6.9524718882       -3.7983303883       -0.9375746655
 H          5.5315015509       -3.6758730649       -0.3416476473
 O          3.8120187789       -6.7125717189        3.9520382861
 H          4.6725414099       -6.2949925533        3.8655330125
 H          3.6199907260       -7.0738400356        3.0732411970
 O          7.4838908963        1.2162004929       -1.1486182551
 H          8.2170162799        0.9729890319       -1.7124595035
 H          6.7862549789        1.5491829487       -1.7508957285
 O         -5.5240690229        6.5725105497       -0.4676861536
 H         -4.7480421019        7.1093650676       -0.2796372820
 H         -5.2402377016        5.9055549112       -1.1083067601
 O          4.3868961439        3.1111505616        5.4820328706
 H          3.9234858752        3.8825179880        5.1082043923
 H          4.9172763417        2.7381346873        4.7663453510
 O         -3.3899202450       -7.5121992909        1.5263278779
 H         -3.2968133665       -7.3621150349        2.4692047861
 H         -4.2259498761       -7.1162663392        1.2509262837
 O          5.9710412298       -3.5227152270        3.9467784077
 H          5.3339807819       -3.5422344882        4.6732870614
 H          5.7643233427       -4.2728373423        3.3553367242
 O          6.7637974213       -3.8155979875       -2.8598002360
 H          5.9183697708       -3.3197507592       -2.9859812658
 H          7.3182046607       -3.5262495226       -3.5831522011
 O          7.7684474857       -2.3782353488        2.1581570191
 H          7.4051704444       -2.8879153963        2.8954023727
 H          7.4501779579       -2.8326523912        1.3663971074
 O          5.1115573325       -5.9508274915       -2.2519236069
 H          5.8072586820       -5.3481429931       -2.5656936196
 H          5.5289381608       -6.6359543549       -1.7327661046
 O          5.8702457539       -2.3680306072       -5.6682526403
 H          5.3556548059       -3.1692943324       -5.5449930393
 H          5.3477782050       -1.8254643030       -6.2745256859
 O          7.2013832030       -0.4996486928        4.4178115130
 H          7.3955365186        0.4074712188        4.1765551722
 H          7.5184894575       -1.0702095936        3.7091597360
