  102

 H         -0.5425054112       -1.1597996587        0.9180873604
 C         -0.6112510051       -0.5412956742        0.0100749183
 H         -0.5391308395       -1.1969144473       -0.8712436598
 C          0.5103658646        0.5037878336       -0.0094871839
 H          0.3911098456        1.1518924071        0.8600966293
 H          0.3944399222        1.1152669954       -0.9056411628
 O         -1.7891825170        0.2100258091       -0.0077307039
 H         -2.5646581753       -0.3620747642        0.0026734604
 N          1.8637421186       -0.1172780945        0.0059475205
 H          1.9871272141       -0.7237037743       -0.8163106211
 H          1.9839787970       -0.6890763208        0.8531041610
 H          2.5930828887        0.6072400315       -0.0077051379
 O          2.2664810451        3.1024283001        0.1455942007
 H          2.9293694535        3.2453512352        0.8311381805
 H          1.4291528078        3.3915409976        0.5252038630
 O          1.9469685881       -0.8007019531       -2.6419551940
 H          2.2733880342        0.1172869191       -2.6758250571
 H          1.0370635280       -0.7517992915       -2.9901941992
 O          3.1797175597       -2.7118213701        0.7334878823
 H          2.8182884001       -2.4016305980        1.5748888612
 H          2.4288116062       -3.0937890912        0.2491018064
 O         -0.5495700147       -0.1601945092       -3.5765999696
 H         -0.3292183054        0.8057382769       -3.4473271589
 H         -0.6288378586       -0.2860093948       -4.5233960434
 O         -3.1175356391       -0.1266354882       -2.5936492642
 H         -2.2110271092       -0.1497655579       -2.9539976153
 H         -3.1650602318       -0.8444135323       -1.9468373006
 O          1.0906319209       -3.0768107182       -0.9778458794
 H          0.1478387996       -3.3065912034       -1.0081576750
 H          1.3640572843       -2.9879236184       -1.8936238721
 O         -0.2493944977        3.2539873784        1.4936214360
 H         -0.9939348667        3.1347464994        2.1057719129
 H         -0.6616813263        3.2602497589        0.6106246499
 O         -1.4432800946        2.7958166681       -0.9364532835
 H         -1.5771299110        1.8713669142       -0.6497727666
 H         -2.3315471880        3.1041053016       -1.1569362591
 O          2.7229029771        1.8092846742       -2.1908044025
 H          3.6725247423        1.7565726832       -2.3519781490
 H          2.6171142955        2.3483783192       -1.3831000876
 O          0.1305938755        2.3178349434       -3.1489854133
 H          1.0713583362        2.3695313795       -2.9266365878
 H         -0.3720288182        2.6897146388       -2.4016555787
 O          1.7335591137       -1.0919054808        2.5262378680
 H          0.8624350753       -1.4128006718        2.8192945201
 H          1.7816380862       -0.1705190797        2.8384778685
 O         -4.0594912393        1.9645353456       -1.0542464903
 H         -3.7627493155        1.2691817054       -1.6708297040
 H         -3.8513021580        1.6336861381       -0.1623050097
 O          4.2808577797        0.9224210926        0.5230575839
 H          4.7539297261        1.0601627965       -0.3184391050
 H          4.7235102636        0.1429796641        0.9424218640
 O          1.4995275785        1.6422349196        3.0070046730
 H          2.3919091202        2.0341226407        2.9967056490
 H          0.9491363028        2.2725487240        2.5126391750
 O         -3.6341087359       -1.8210459394       -0.3910089900
 H         -3.5275877361       -1.9513076690        0.5679243577
 H         -4.5919490370       -1.6125060801       -0.5142743400
 O         -4.0751617396        0.9742713078        1.5356570389
 H         -3.7652264788        0.0800924668        1.7861894078
 H         -5.0372207043        0.9425143087        1.5859335617
 O         -1.6235217929       -3.4214307563       -1.4231180172
 H         -1.9823585088       -4.2445059896       -1.7566064299
 H         -2.3739656051       -2.9206853095       -1.0603570088
 O         -0.7480161114        0.8291532863        4.3706187300
 H         -1.3898061717        1.4216055542        3.9414266176
 H          0.1277108962        1.1633577239        4.1167302569
 O          5.3185774812        0.7095949521       -1.9446263863
 H          6.2757581574        0.6481422219       -1.9669874563
 H          4.9967820084       -0.2134127997       -1.9282912590
 O          3.9272041335        2.7114892490        2.4421759152
 H          4.6875936647        2.8503175685        3.0064462328
 H          4.1797213342        2.0295248417        1.7790899830
 O         -0.8129396038       -1.6088682411        3.5037347691
 H         -0.7710059155       -2.1789846577        4.2730419768
 H         -0.8234713781       -0.6688377488        3.8577285940
 O         -6.1681104821       -1.0622722681       -0.6490048467
 H         -6.3574842381       -0.1339165214       -0.4029881693
 H         -6.2060774318       -1.0603422895       -1.6240905814
 O         -6.5215701161        1.5598699616       -0.0655826513
 H         -7.2534837191        2.1027624821       -0.3576196527
 H         -5.7181530991        1.8746133804       -0.5350297188
 O         -3.1987882205       -1.5088614369        2.2313590434
 H         -2.3651097051       -1.6123498138        2.7344560515
 H         -3.9489548573       -1.7539562233        2.7816268176
 O         -5.7548849987       -0.4632747860       -3.2554313978
 H         -4.7899972954       -0.3478569735       -3.2162210415
 H         -6.1098148802        0.3409767985       -3.6346609080
 O         -2.4465983551        2.5205061746        2.9968002318
 H         -3.0042836167        3.1260656084        3.4861696484
 H         -3.0397503345        1.9823843767        2.4264473431
 O         -5.9510980481       -1.2395452584        2.1683278061
 H         -6.8117897266       -1.2667137697        2.5865971969
 H         -6.1092921290       -1.3782174601        1.2237029087
 O          4.3008582798       -1.8429656606       -1.6671009976
 H          3.5202653734       -1.7282384046       -2.2262806368
 H          3.9791535489       -2.1689716539       -0.8086916054
 O          5.5320421304       -1.2117465821        1.4048114472
 H          6.1882443941       -1.3264993216        0.6938826838
 H          4.9331666298       -1.9642228862        1.3496138488
 O          6.9467033692       -1.6012322632       -0.9163646203
 H          7.6236465541       -2.2765240192       -0.9623106393
 H          6.1654072407       -1.9400972215       -1.3778104731
