  612
 
 H         -1.2124372128        0.0914425487       -1.3303229072
 C         -0.5580725196        0.6772510846       -0.6874392872
 H          0.4426220874        0.2517875203       -0.7269035422
 C         -1.0339856509        0.6207984061        0.7509738199
 H         -0.4587560875        1.3255234059        1.3405383498
 H         -0.8386300316       -0.3851046089        1.0962092173
 O         -0.5125563997        2.0173865603       -1.1545142372
 H         -0.0414833927        1.9977217993       -2.0221446764
 N         -2.4765692178        0.8992444377        0.9083156680
 H         -2.9829627019       -0.0093391793        1.0027960219
 H         -2.8460412722        1.3804047925        0.0599424602
 H         -2.6564047448        1.4230444429        1.7890148963
 O          3.7448298768        4.6393130875        3.6287756049
 H          2.8837930736        4.3790888286        3.2200916880
 H          4.3555495131        4.3834370599        2.8987796974
 O          3.4723628051        3.5822532714       -3.5227824630
 H          3.0402725502        3.7593302930       -4.3743019693
 H          3.9327121053        2.7364959043       -3.5643366532
 O          7.5854798611        2.3119337203       -0.4910145487
 H          7.4540260665        1.8707258638        0.3690658969
 H          6.7408339970        2.7709361871       -0.7000554479
 O         -0.6368068666        2.9411279166        3.1383218422
 H         -0.8454067492        2.0099348226        3.3202547661
 H          0.0693738718        3.1432092369        3.7830125447
 O         -6.2146412539        2.5865106952       -0.1687826244
 H         -6.9346223876        2.5264443303       -0.8167215262
 H         -5.8841599429        1.6715959661       -0.1326563714
 O         -3.5502175490       -4.2490998521       -5.2960049236
 H         -3.6060931101       -3.4783483544       -5.8805578772
 H         -2.6202769846       -4.5184809873       -5.1956540449
 O          3.2727247802        1.9242108671        3.6985890939
 H          2.7809560990        1.7142049070        2.8787561447
 H          3.2158845136        1.1539297858        4.2864714649
 O          8.3526866480        5.5940761927       -2.2873261576
 H          8.4692777574        5.4615507412       -1.3327631628
 H          8.7665397935        4.8170200458       -2.6937892182
 O          1.4548288048       -1.1667492373        1.5757930403
 H          1.4299387938       -0.2003028994        1.6032432385
 H          2.1747835929       -1.4223270000        2.1995100652
 O         -4.4110566820       -3.3641357508       -2.9258264740
 H         -4.0457881323       -3.7018085104       -3.7671088861
 H         -4.8487702753       -4.1214600867       -2.4895540466
 O          0.0827850824        4.8818181798       -2.3101006739
 H          0.7518879873        4.2468587533       -1.9674442248
 H          0.1327129585        5.6568464848       -1.7166887507
 O          5.2803207133        3.5220766899       -1.0781151625
 H          5.4584975405        4.1761250308       -1.7887887582
 H          4.9949826411        2.7270289710       -1.5612362573
 O         -5.2854324083        0.4853507442        2.2917016349
 H         -4.7504255907       -0.2573091448        2.6061374611
 H         -5.5881332398        0.2222293929        1.4104099422
 O          1.6690533354        0.0590431399        4.9220276871
 H          1.5334354209       -0.2478443190        5.8327120528
 H          0.7895966803        0.2006847260        4.5192618462
 O          1.2355984649        3.0602125279        4.9926436787
 H          1.5281626543        3.8614725456        5.4620118091
 H          2.0224503623        2.6560694493        4.5600513223
 O          4.5280520488        1.1204994640        1.1157989662
 H          5.3345929255        0.7978091968        0.6490828163
 H          4.5686883323        0.6469208554        1.9625610649
 O         -3.1809317541       -6.3892765543        3.9357739748
 H         -2.4834815422       -6.1055516893        4.5508288570
 H         -3.5417840538       -5.5586454921        3.5646300108
 O         -0.7762902813       -2.1725437465        2.6519619552
 H          0.0435502576       -1.8726003327        2.1977558788
 H         -0.9122796425       -3.0906108948        2.3642134794
 O         -0.8056935428        0.2876633446        3.8846453406
 H         -1.2857046338        0.2451824889        4.7373089757
 H         -0.9838740181       -0.5412141558        3.4265964926
 O         -1.7893534653        0.1754366869        6.3463211473
 H         -1.1435372317        0.8464148597        6.6531047033
 H         -2.6799696015        0.5496381701        6.5081332042
 O          6.7794252984        3.2057206926        6.7644941691
 H          7.0021603950        4.1392550086        6.7400381150
 H          5.8187060808        3.1814885390        6.6125171644
 O         -3.3601488807        4.3183896027       -0.0991361411
 H         -2.4857002186        4.2005209430        0.3255832312
 H         -3.2273440858        3.9951282728       -1.0080119779
 O         -5.5584162962        1.9622779913        4.6489769648
 H         -6.4680188624        2.2784490493        4.7960606555
 H         -5.5773508444        1.3950391739        3.8576312181
 O         -1.2591061389       -2.1897887639       -0.2811801009
 H         -1.4823555823       -2.8819045632        0.3537718035
 H         -0.5831080670       -2.5943545655       -0.8367579809
 O          2.1163052500       -1.7853167787       -0.9921184385
 H          1.8970627651       -1.6367987766       -0.0543956389
 H          2.2628677212       -2.7343355580       -1.1294379337
 O         10.4090975975        1.9940577573       -0.8692227871
 H         11.2247508731        1.4904337082       -1.1137195040
 H          9.8349704404        1.3264527816       -0.4345011125
 O         -3.0836056582        1.8309506007        3.3938433106
 H         -3.9107414062        2.2535647320        3.1176824816
 H         -3.3204872231        0.9567139161        3.7588769234
 O          2.6808177164        1.0057182315       -0.8825906873
 H          3.5245298907        0.9477017111       -0.4090426979
 H          2.8132508298        0.7010628656       -1.7994317487
 O         -1.0612863202       -2.1404381901        7.3639436794
 H         -1.4045847377       -1.2997364271        6.9753142561
 H         -1.8344020627       -2.5854719432        7.7177357540
 O         -2.4052501724       -2.9174969047        4.8726736308
 H         -2.9004226966       -2.8325056143        5.7136921032
 H         -1.8224330732       -3.6879507780        4.9922554724
 O         -1.3793980713       -0.9477920021       -7.4056784195
 H         -2.2004082817       -0.5337451882       -7.7082595300
 H         -0.6521123826       -0.4609446485       -7.8122531478
 O          3.8819657995        6.7791645016       -2.3365012378
 H          3.1016870850        6.6685774965       -2.9041942894
 H          3.6357166890        6.4584710695       -1.4581046634
 O          0.5852702950        0.9396164106       -7.3821177840
 H          1.3696549689        1.5356548439       -7.4846882314
 H          0.7634538329        0.4108290856       -6.5760154065
 O          4.6808360408       -1.3814189619       -1.6565425996
 H          3.7236605406       -1.3868755633       -1.4425853306
 H          5.0209912915       -2.2416629489       -1.3566342895
 O         -1.8392462942       -4.3503165056        1.3708959387
 H         -1.6971759712       -5.3154524301        1.4597897447
 H         -2.6941710392       -4.1931725291        1.8266900388
 O        -10.5903273990       -1.4777428859       -0.7905027164
 H        -11.0844616087       -0.8908518335       -1.3852652212
 H        -10.8117734529       -1.1917637018        0.1082238146
 O         -7.6718048241       -1.9068545528        1.1751533439
 H         -7.0021763363       -2.0593269794        1.8666060488
 H         -7.2813419954       -2.1914712225        0.3195753060
 O         -3.4306755695       -1.4923501764        1.6338817084
 H         -2.6230125021       -1.8470657886        2.0217317217
 H         -3.8618111362       -2.2000723172        1.1201353738
 O          0.5072860095        1.7776655224       -3.5871328763
 H          1.3455181986        1.2798373648       -3.5502840422
 H         -0.1279442207        1.1710182027       -4.0115948024
 O         -1.4111747355        7.5261280390       -2.8131865049
 H         -2.0499794634        7.3861494142       -2.0975734206
 H         -1.6818448816        6.9132858571       -3.5167148900
 O         -7.5145347884       -0.0744880717        3.9901808584
 H         -7.5231655177        0.7154598452        3.4304780936
 H         -8.4163280999       -0.4478294658        3.9501367685
 O          7.2399543062        0.7215213690        5.5411099870
 H          7.3671124426        1.2378818983        6.3420127951
 H          6.7623309923        1.3374667364        4.9366586848
 O         -2.6106451839       -4.5154967856       -1.2763024367
 H         -2.1151864858       -4.5878278376       -0.4458334159
 H         -2.6212619867       -5.3980485388       -1.6882665658
 O          1.6677489733        1.6455755671        1.6029450627
 H          1.5428101287        2.6072199580        1.7151314085
 H          2.0537692884        1.5199527267        0.7261580568
 O          5.0729964477        3.6868717685        1.5562162103
 H          5.0335169356        3.9720377630        0.6287158532
 H          4.8524566642        2.7282612188        1.5026767333
 O          0.8066514274       -6.6846450958        4.3901161932
 H          0.6876578046       -6.8515956847        3.4360542329
 H          1.7388170295       -6.4551723219        4.4900300716
 O         -5.9504678151       -6.2134123653        3.9884870124
 H         -5.9199953346       -5.9918677552        3.0313684200
 H         -5.1460990611       -6.7201776090        4.1515828500
 O          3.0153373689       -5.6259447203       -4.4770373953
 H          2.2620860627       -5.0672873270       -4.1549099447
 H          3.2538726259       -5.2076964372       -5.3111192953
 O          2.7075818586        2.4509425781       -7.4316483811
 H          2.4997671955        3.3163674247       -7.0511241946
 H          3.2970740528        2.0374234247       -6.7632012730
 O          2.0906390387        3.5294442767       -1.3647884424
 H          2.6435994306        3.6308468606       -2.1815915354
 H          2.2177932387        2.5923007456       -1.1140414516
 O          3.1835953389       -2.3923448787       -4.0263894292
 H          2.5689746074       -2.7851803989       -4.6721122078
 H          3.1257139175       -2.9660829743       -3.2432099714
 O         -3.3128633200        2.2834777720       -4.5845365618
 H         -2.5814568125        1.6935684191       -4.8590084906
 H         -2.9704306642        2.8030184615       -3.8330090785
 O         -0.5830917041       -3.0429833984       -5.8792507779
 H         -1.1298805328       -2.4716181247       -6.4364903168
 H         -0.9441959456       -3.0404512775       -4.9744856548
 O          6.2246985249        5.1660053801        4.8545095658
 H          5.3292251582        5.3651046945        4.5691840125
 H          6.7847045172        5.2509368540        4.0643239862
 O         -2.4639122477        5.5351389579       -4.4952369576
 H         -2.7011214199        4.9819469837       -3.7364846619
 H         -1.6515302206        5.1049546258       -4.8243280182
 O          5.4185409755       -0.2945970466        3.2566564347
 H          6.2515628326        0.0683042497        2.9084098280
 H          5.2843844283        0.0731072668        4.1437939192
 O         -2.0862389164        2.9261985799        5.7075103412
 H         -2.8691671046        2.8768222215        6.2603053375
 H         -2.3444854307        2.5668131205        4.8346299973
 O          4.0268162180        3.3536590686        6.1587958104
 H          3.4544960167        3.9041716055        6.6984540462
 H          3.9434738826        3.6966875056        5.2498225033
 O          0.3745159964       -1.0801550802       -2.9730141593
 H          1.0426271559       -1.3012639232       -2.3055152423
 H         -0.2346358862       -1.8342031532       -3.0353455959
 O         -1.4037900730        0.4556309408       -4.9731169322
 H         -1.9817374380       -0.1523417967       -4.4672046756
 H         -1.2733097966        0.0214512013       -5.8313072780
 O         -2.2186582043        3.6598399151       -2.4875791104
 H         -2.0114610154        2.8100829770       -2.0604693796
 H         -1.3639174561        4.1519650955       -2.4605877165
 O          0.3411669979       -4.3266456941       -0.9927261027
 H         -0.0806173231       -5.1968916070       -1.0724652846
 H          1.1043235488       -4.5101978554       -0.4141774334
 O          7.7966785962       -4.6368534926        2.9901869015
 H          8.1188205809       -4.0090674287        3.6908957479
 H          8.3209190538       -5.4293541181        3.1023104603
 O          3.2724226648       -8.0217038436        1.9943232112
 H          3.8004239397       -7.8346508861        1.2097855485
 H          3.5186484489       -7.3626114820        2.6554303152
 O         -6.6452585784        5.0171552557        3.4985665865
 H         -6.0167916558        4.4367167693        3.0065191745
 H         -7.1489505823        4.4236638999        4.0830700927
 O          8.7684132382        3.2203246718        4.5073292986
 H          8.1786115794        3.1763679438        5.2675028339
 H          8.3185824895        3.7527410470        3.8248097652
 O          9.3222017720        3.1043612674       -3.0472572859
 H          9.9613683323        2.7019423668       -3.6432061965
 H          9.5828033363        2.7618133883       -2.1638101058
 O          8.8209510386        4.5706606366        0.2652911144
 H          9.7152526476        4.3831208506        0.5773175933
 H          8.4646902266        3.7127531289       -0.0672552363
 O         -3.5964760180       -1.3009587427       -1.3013405954
 H         -3.8463258494       -2.0275273965       -1.8937720337
 H         -2.7454731963       -1.5758368262       -0.9035834847
 O          4.2967752341        1.5610064712       -5.4861272826
 H          4.8104672533        2.3889443876       -5.4292234694
 H          4.9026468982        0.8758515533       -5.8464700365
 O         -3.7646324253       -0.5752420580        4.3568252680
 H         -4.4995159644       -0.7322559513        4.9664007743
 H         -3.1672472541       -1.3278861956        4.4213120899
 O         -8.2493730150       -0.5825812169       -1.8545483965
 H         -9.0266864600       -0.8444069099       -1.3295130808
 H         -8.3579296041       -1.0210030660       -2.7170390578
 O         -7.3022697134        1.1584061102       -5.7029222336
 H         -6.9899610568        1.9615250993       -5.2358676428
 H         -8.2296590193        1.0562986214       -5.4647526998
 O          8.8110047230       -4.0761518240        0.3963859693
 H          8.4150857202       -3.3493660609       -0.1408530663
 H          8.4681673492       -3.9831795525        1.3000521062
 O          7.6850981941       -2.3571938895       -1.3030688434
 H          7.3782307498       -2.9080199260       -2.0431160482
 H          7.8835759955       -1.4836503747       -1.6783721574
 O         -4.2036260995        1.2450473281        6.8297362708
 H         -4.6660467903        1.4754744137        5.9949694708
 H         -4.7908039186        0.6247166797        7.2655868611
 O          1.6475928295        4.3002330072        2.1028134146
 H          1.0159116896        4.8873897042        2.5543696420
 H          2.0442480626        4.8210283303        1.3654651025
 O         -8.3332212273        4.5451441028        1.4347597946
 H         -7.7504745349        4.6092073397        0.6674336497
 H         -7.8680783686        5.0008864338        2.1595713675
 O         -2.7322739760        4.6792567092        3.1766699555
 H         -1.9653073429        4.0730176991        3.1912647751
 H         -3.1806334069        4.6010902275        4.0402602117
 O          2.7511490237        6.9286252040        4.4609229594
 H          3.2095479830        6.1411648478        4.0739413970
 H          3.2592599363        7.7019618670        4.2196260703
 O          0.4213537872       -2.7408922666        5.1028600605
 H         -0.0796929931       -2.6236182974        5.9244440849
 H         -0.1334848679       -2.3783889437        4.3917194707
 O          6.5535959723       -2.3074723311        1.5306173487
 H          7.4985024994       -2.2082117199        1.8099925463
 H          6.0467046046       -2.4497327486        2.3490208547
 O         -4.2309041077       -1.7900969098       -6.3913537741
 H         -5.2132288492       -1.8189963934       -6.3724964856
 H         -4.0100153627       -0.9657916652       -6.8634573297
 O        -10.0081739971        1.8974797971        4.2500072303
 H        -10.1108013153        0.9370617890        4.2586402840
 H        -10.3022314918        2.2178103408        3.3796643457
 O          2.8124930634        0.3006161354       -3.5344396972
 H          3.3688808791        0.7435409979       -4.1980876398
 H          2.9077823135       -0.6564847088       -3.6916043304
 O         -1.5274252434        2.4471744702       -7.1271517547
 H         -1.5910628828        2.9953265706       -7.9084570990
 H         -0.7232749247        1.8676094498       -7.2403519104
 O          6.2569932550       -1.7899736628        5.8527544037
 H          5.5992201046       -1.7903945147        6.5572512190
 H          6.5538141958       -0.8628947890        5.7474163425
 O          3.8145026725       -1.6335241667        7.2432604970
 H          2.9778034352       -1.3067342017        7.6023787142
 H          3.5708711457       -2.4032812714        6.6854981718
 O          2.1379046119       -3.6779096303       -6.2501522778
 H          1.1732186772       -3.6200430023       -6.2099314400
 H          2.4539413266       -2.9995544035       -6.8579237292
 O          5.6479314084        3.9243547864       -5.3926995780
 H          5.6456366293        4.3860037022       -4.5128357489
 H          5.3371077229        4.5621940622       -6.0337109850
 O          3.1666177117       -4.1054413068       -1.8576016482
 H          4.0314739260       -4.1602165572       -1.4303820514
 H          2.8112034874       -5.0018892890       -1.9340404950
 O          5.3657240368       -3.2287518982        3.7671752021
 H          5.6002113324       -2.6245495947        4.5010639052
 H          6.0312099092       -3.9227237523        3.7849861754
 O         -0.1145175615       -7.0159368648       -0.9426395377
 H          0.7337691065       -7.0625283487       -1.4176326719
 H          0.0884586239       -7.2173756079       -0.0143773925
 O          3.0913643776       -1.6292501576        3.5653430501
 H          2.5822355366       -1.0015745843        4.1369135173
 H          3.9668756054       -1.2406412075        3.4184899785
 O          9.2180229201       -0.1720635487        0.1623271020
 H          9.5958291521       -0.6737028412       -0.5866761455
 H          8.2533342553       -0.1206558984        0.0239612215
 O         -7.9099086813        3.1867441114        5.1260818842
 H         -8.1899435619        3.4519515944        6.0011306464
 H         -8.6708320359        2.6812802976        4.7372910424
 O         -3.9587895272       -2.6732746247        7.0249483347
 H         -4.4627409647       -1.8528056638        6.9738649651
 H         -4.5500478062       -3.3346233408        6.6159711165
 O         -9.1027766624        3.4908973493       -4.0316466964
 H         -9.2349376665        4.0955487114       -3.2871374577
 H         -8.2441062238        3.7241746915       -4.4275245495
 O         -1.5850881368       -2.9170342933       -3.2944067762
 H         -2.2871486251       -2.2617504634       -3.4354791123
 H         -1.9053331089       -3.5055545799       -2.5883701775
 O          1.7593289160        5.2648077536        6.4521416838
 H          0.8076424851        5.4388199802        6.4751973392
 H          2.1531985466        5.9777606267        5.9274983905
 O         -9.1086308620        4.6992388527       -1.5621140022
 H         -9.6753911658        5.3448021188       -1.1399755657
 H         -8.1841945060        4.9501283144       -1.3315080101
 O         -4.6398952518       -3.5327679439        0.2584492387
 H         -3.9747510534       -3.8873772690       -0.3626072697
 H         -5.4080179549       -3.2890754000       -0.2902656164
 O         -7.5898770360        1.9029934055       -2.3577784597
 H         -7.9308242525        0.9972536200       -2.1874612530
 H         -8.1936739693        2.3337810923       -2.9821885056
 O         -0.9942419751        5.3262054662        5.8176978148
 H         -1.3320989897        4.3986009161        5.7354745127
 H         -1.7669149932        5.8696914208        5.9743582638
 O          5.3729466713       -5.5273991705        1.8208598637
 H          4.7536743810       -5.5188343939        2.5719149851
 H          6.2353216573       -5.2336199499        2.1348437534
 O          5.4785319269       -3.7206340605       -0.4474170352
 H          6.0288680305       -3.2012968845        0.1802457397
 H          6.0274761468       -4.5040587879       -0.6536181559
 O         -8.3640173060       -4.7986698263        4.1840569288
 H         -7.6913120190       -5.4882841293        4.2046974400
 H         -8.5305568976       -4.6092538335        3.2370367594
 O          0.5706921176        7.1690365720       -0.9873077819
 H          0.0176664558        7.5939708203       -1.6624020973
 H          0.0412030947        7.1658858540       -0.1649674145
 O         -9.2743067845       -3.5777919539       -2.0217576777
 H         -9.2634093539       -3.1582292242       -2.8942084755
 H         -9.8524964211       -3.0146138848       -1.4825778965
 O        -11.5586947327        0.6669084731       -2.2223231605
 H        -12.4556346666        0.9984810954       -2.2339715163
 H        -11.0231230028        1.2955906525       -1.6805021552
 O        -10.0530128122       -0.9296831506        3.8569068492
 H        -10.4054703813       -0.6422845263        2.9886790510
 H        -10.3729330956       -1.8533583883        3.9235793925
 O         -8.1045812638       -2.5983546214        5.7183598562
 H         -8.8300805729       -1.9893690970        5.5665900540
 H         -8.2702877820       -3.3616524440        5.1260683634
 O         -3.9049020280       -3.9665360268        2.9892136056
 H         -3.3908682059       -3.5177191771        3.6983948356
 H         -4.6898979876       -3.4172719051        2.8556429582
 O         -6.8535552561       -1.5569110885       -5.9522268966
 H         -6.9770157839       -0.6036947126       -6.0851869215
 H         -6.6413020347       -1.6412576469       -4.9920559019
 O          8.3147454132       -0.1190870465       -5.5569788334
 H          7.6672231150       -0.3772727196       -6.2191264707
 H          7.8930269678        0.6251066923       -5.0778393309
 O         -1.3208571345       -5.6501601607       -4.5274728471
 H         -1.7643722058       -6.1280269839       -3.8064948041
 H         -1.0442759399       -6.3033754893       -5.1690367088
 O         -6.0720863231       -2.2775073854        3.3184130491
 H         -6.1183966622       -2.8448493233        4.1044119936
 H         -6.4715626182       -1.4258312061        3.5849056330
 O         10.2944043512        0.6536889971       -3.8014731809
 H         10.8141948662       -0.0507451872       -3.4055550279
 H          9.9256591971        0.3095785926       -4.6244745168
 O         -2.3715460842       -6.9806823030       -2.3524008653
 H         -1.5507579250       -7.1569901701       -1.8512118277
 H         -3.0814944708       -7.4089713837       -1.8614455075
 O         -5.6941143832        2.1712479233       -7.7703262975
 H         -5.3514506322        2.9826991971       -7.3741956341
 H         -6.3642606424        1.8201749223       -7.1639530146
 O          1.5634709259        6.4890984336       -3.9076064657
 H          1.0590739479        7.3031635248       -3.9083358674
 H          1.0052094433        5.8294727420       -3.4399081010
 O          2.3032342471       -5.3136428825        0.5430414016
 H          2.7561099625       -4.5566658722        0.9728722671
 H          3.0089416918       -5.8755187275        0.1861085184
 O         -0.8437129719        3.9819254930        0.6617067018
 H         -0.6529911311        3.5990755581        1.5377442282
 H         -0.5552788492        3.3334758194       -0.0083083136
 O          3.0954950414       -1.1691130629       -7.1527949856
 H          2.9202317504       -0.5115138112       -7.8275631072
 H          2.4595733023       -0.9893242276       -6.4224643959
 O         -6.4912121001        3.5248909365       -4.6628270320
 H         -5.8274936910        3.8850820099       -5.2811661788
 H         -6.0293256777        3.4716175603       -3.7980663939
 O        -10.9161743699        0.0390417482        1.5073556767
 H        -10.0110137090        0.3079245279        1.1920371799
 H        -11.4006854377        0.8537902692        1.6547044159
 O          7.9759493999        0.2121112389       -2.3413709246
 H          8.8021818442        0.4250595372       -2.8098736401
 H          7.7838482621        0.9678360813       -1.7553884502
 O         -3.3094875560        7.0826921090        2.0613378560
 H         -3.1975288373        6.2570179722        2.5619560909
 H         -2.4370262894        7.1817110406        1.6384705229
 O         11.8766669794       -0.4020929634        1.4475155545
 H         11.1346337465        0.0924726685        1.8117403384
 H         11.5416286878       -1.2759779661        1.1947187325
 O          1.2889925673       -4.1784556064        2.8649947331
 H          1.7827174637       -3.4730055434        2.4331410030
 H          0.9807140779       -3.8241539291        3.7101626741
 O          9.0314565835       -1.9124635167        2.1664100855
 H          9.2136068116       -1.2496467487        1.4664680729
 H          9.1507254822       -1.4506468007        3.0148823145
 O         -5.5294468367       -5.5922116133       -1.9309827329
 H         -4.9366025268       -6.1134654182       -1.3646020777
 H         -5.5000460419       -5.9951428715       -2.8190491779
 O          5.1194976479        1.3966013417       -2.6483029787
 H          5.9179998610        1.5356187828       -3.1948731111
 H          5.0482696932        0.4570495707       -2.4629805014
 O         -5.9803503917       -0.8473817674        6.0907828701
 H         -6.4455446492       -0.2544895468        5.4743497487
 H         -6.5999879977       -1.5922742053        6.1568850787
 O         10.5092750240       -1.4887047465       -1.8699492000
 H          9.9911745119       -1.8925011037       -2.6001433116
 H         10.8104394616       -2.1973442434       -1.2830307382
 O         11.2361806999       -2.9507355242        0.3324050063
 H         11.9107252682       -3.5659623014        0.6145215090
 H         10.3635356629       -3.3809151325        0.4821642016
 O          4.3885553686        0.5039821609        5.6781596526
 H          4.1558737181       -0.1995102172        6.3103840196
 H          4.2868535519        1.3559431241        6.1141667955
 O          8.4873709051       -3.1431391398        5.0337781807
 H          9.0802514521       -2.3944345378        4.8878607359
 H          7.7031052194       -2.7581895510        5.4604368681
 O         -1.9318012044       -6.9775238858        1.6738947282
 H         -2.3868492456       -6.9458394954        2.5461999625
 H         -1.0311430825       -7.2916746145        1.8235835613
 O        -10.8280132791       -3.4873395241        3.6836831291
 H        -10.4467671064       -4.1315266639        4.2871431639
 H        -10.4646832984       -3.7109818073        2.8130682494
 O         -5.8119185084       -0.1023352372       -0.3222695555
 H         -5.0543507300       -0.6113925226       -0.6628049494
 H         -6.5919906716       -0.3188895130       -0.8520475670
 O         -5.2360626016       -6.2710074887       -4.5213875760
 H         -5.9638331786       -6.3327236499       -5.1391029377
 H         -4.6279016112       -5.5958420048       -4.8720434165
 O          2.1150623303        4.5164429624       -5.7186321998
 H          2.1883963259        5.3889791505       -5.3064153228
 H          1.1807593431        4.2667232496       -5.5574329429
 O          6.8620190491       -3.9667147261       -3.3588160547
 H          6.2930038436       -4.7017944829       -3.0781760603
 H          6.3802579765       -3.6084789704       -4.1337527320
 O         -9.9225054354        0.8970025338       -4.4316946747
 H        -10.5721199746        0.7299146288       -3.7289941737
 H         -9.8008995931        1.8592346573       -4.4295989480
 O        -10.6423606667        2.9662291913        1.7857634700
 H        -10.5409000824        2.6896607168        0.8543625109
 H        -10.0664558461        3.7355198475        1.8628197062
 O         -4.0329253306       -7.0420271219       -0.1115571952
 H         -4.7197606780       -6.7460375819        0.5138927166
 H         -3.2289170300       -7.1057439986        0.4277594506
 O         11.1937363168        3.3680136466        1.1825489394
 H         12.1447349353        3.4647532242        1.1963327998
 H         10.9643359087        2.8636996416        0.3538061232
 O         -4.8723857570        6.1993551446       -2.8446996214
 H         -4.2812806439        6.5540184611       -2.1405662495
 H         -4.4603715897        6.4208387028       -3.6820464753
 O         -8.5014098402        0.5690668697        0.6736029164
 H         -8.1461784791       -0.3325476785        0.8249160045
 H         -8.0512986780        1.1580862252        1.3188277042
 O         -6.2375835497       -1.6053855442       -3.4052877002
 H         -5.9104676935       -0.6872837003       -3.3669675481
 H         -5.4648172094       -2.2159971027       -3.3452529356
 O          0.2979616326        6.1122339075        3.5656742331
 H         -0.2192123528        5.8089911670        4.3359939066
 H          1.0880048966        6.5618106770        3.9057390478
 O          7.2069358688       -5.7384594438       -0.9209547051
 H          7.5553223174       -5.6816877035       -1.8120604740
 H          7.8757716770       -5.2954915694       -0.3549378827
 O         -0.4126884063        3.8414272147       -5.1002786962
 H         -0.1002544327        3.1983641943       -4.4345774320
 H         -0.8666865426        3.3191764744       -5.7882552671
 O          0.7894285496       -7.1425367782        1.6915163825
 H          1.5748206997       -7.7227032250        1.7812201359
 H          1.1858469957       -6.2854078658        1.4110684585
 O         -9.0273913111       -4.1445111696        1.6513852998
 H         -8.7522356328       -4.7209569947        0.9264419170
 H         -8.6334763324       -3.2628666982        1.4644028742
 O          3.0264596540       -3.5057209933        5.4620908351
 H          2.0695721006       -3.3844937945        5.5468952665
 H          3.2626304937       -2.9091076118        4.7166741061
 O          3.3786661281       -5.6100464584        3.7074553246
 H          3.5597145664       -5.0165246127        4.4556725815
 H          2.6309815882       -5.1657418889        3.2419311848
 O          0.9435122502       -4.2182207286       -3.6274379721
 H          0.1516559962       -4.6060317080       -4.0204836347
 H          0.7680271724       -4.1615157694       -2.6699966151
 O          9.1110410866       -2.3124049963       -4.0025932370
 H          8.3837247105       -2.9328609666       -3.8761963235
 H          8.7640116115       -1.5931862530       -4.5594330604
 O         -5.8792190624        6.7532170774        1.3643022127
 H         -6.2371633561        6.4370717116        2.1998680830
 H         -4.9398035419        6.9433254522        1.5541918209
 O         -6.6691008580        5.4238373269       -0.8067298145
 H         -6.2172225347        5.7875550766       -1.5773319406
 H         -6.3558018112        5.9554493613       -0.0421093135
 O          7.4152122815        1.2618161109        2.0860836477
 H          7.0096823890        1.9338876283        2.6573226565
 H          8.3713559873        1.2732182362        2.2816352997
 O         10.0052141103        1.5717284146        2.8365015984
 H         10.4926637606        2.1927139042        2.2614391645
 H          9.6621000986        2.1472978416        3.5515509458
 O         -5.8452067781       -5.6464663190        1.3743710419
 H         -6.6689732017       -5.6791937627        0.8721594785
 H         -5.3783280253       -4.8283270085        1.0867646040
 O          0.1735100369        1.8586773937        7.1050529271
 H          0.5729240360        2.1953162639        6.2625185302
 H         -0.2047246296        2.6271413766        7.5311388412
 O         -4.3336906979        4.1435857231       -6.1520756975
 H         -3.8012005520        4.9016547704       -5.8795147086
 H         -3.9050580489        3.3813011021       -5.6968683208
 O         -7.4368113507        2.2110405960        2.4109471012
 H         -7.8920851228        3.0192639930        2.1024330785
 H         -6.5147587724        2.3036647111        2.1319317055
 O         -9.0900049798       -1.7714172190       -4.2108657394
 H         -8.4841133839       -1.9403454788       -4.9469263307
 H         -9.5215087232       -0.9309439689       -4.4192059241
 O          4.4885147838       -6.7623431868       -0.3519607164
 H          4.9740244054       -6.3379456139        0.3871222350
 H          5.0343931420       -6.5812580671       -1.1315995674
 O          5.8571993507        5.1593389804       -3.0744421377
 H          6.7553605638        5.4715058389       -2.8214756029
 H          5.2062615988        5.8672923494       -2.8788882858
 O          5.1641854160       -6.0952746929       -3.0113292351
 H          4.3949183381       -5.7925670138       -3.5579281892
 H          5.6129866061       -6.7560265235       -3.5370435141
 O        -10.0206199072        2.2465529856       -0.7519329173
 H         -9.6062020237        3.0553178572       -1.1054062061
 H         -9.3068184642        1.6502787859       -0.4514678562
 O          7.2036821381        2.0028099961       -4.2553939057
 H          6.8312123469        2.6978344083       -4.8135508252
 H          7.9237336212        2.4300501622       -3.7418884911
 O          1.2705170873       -0.6206263500        7.5638553840
 H          0.5247440430       -1.2250564145        7.6818527839
 H          0.9295818014        0.2799580699        7.6701262576
 O          6.4546364788       -0.1914296190       -0.0158931962
 H          5.9571197014       -0.5508544735       -0.7676817512
 H          6.4787997322       -0.9250577094        0.6352769029
 O          3.5936011648       -3.2258222824        1.4678893229
 H          4.2722473846       -3.3660824237        0.7867735328
 H          4.0672601248       -3.2343814524        2.3099909263
 O         -5.2950575963        0.8730543815       -3.4141314375
 H         -6.0642804777        1.3664598742       -3.0705807879
 H         -4.7582500888        1.4925559494       -3.9443147059
 O          2.6568838494        5.6627866876        0.0518919460
 H          1.9874508470        6.2842888392       -0.2674236306
 H          2.5534964040        4.8469612926       -0.4927320462
 O         -3.2798594988        6.8365741878       -0.8466657140
 H         -3.2945538497        5.9107843703       -0.4781608677
 H         -3.5351382397        7.4091875299       -0.1203639102
 O         -4.4530161042        4.4299851174        5.2208727946
 H         -4.7892440256        3.5329491496        5.0421390718
 H         -5.1463246240        5.0230729490        4.9086815985
 O         -4.8929302751        3.5338751458        2.1082699334
 H         -4.0723862859        4.0404400119        2.2926455020
 H         -4.9982454410        3.5444388989        1.1464442122
 O          1.0690849423       -0.8873362377       -5.4780582521
 H          0.5417576596       -1.6647922651       -5.7324641760
 H          0.9332819703       -0.8297037052       -4.4983890193
 O          5.9278274477        2.4757567671        4.0059416598
 H          4.9733624111        2.3232762111        3.8736991395
 H          6.0346557098        3.3545303939        4.4028225555
 O         -0.8251703387        6.6251027290        1.1809625581
 H         -0.4175432549        6.6153378305        2.0631501039
 H         -0.8732738489        5.6821931025        0.9245532065
 O         -3.5717949833        0.6164431708       -7.4654825213
 H         -4.3936569738        1.1010522238       -7.7007216861
 H         -2.9473206148        1.3087514740       -7.1863820111
 O         12.4393459560        0.3599928609       -1.0893810627
 H         11.9577400645       -0.3741159290       -1.4951336952
 H         12.4453466962        0.1457329823       -0.1337299308
 O          5.2209045177       -3.4996137795       -5.4163267023
 H          5.4971865416       -2.9250942073       -6.1307922125
 H          4.5077589410       -3.0279805299       -4.9343062085
 O         -3.3650549021        1.4360565124       -1.5092199591
 H         -4.0705805188        1.9552175447       -1.9172149118
 H         -3.5440921918        0.4959942252       -1.6634456878
 O         -5.0261925569        3.5279185738       -2.4207172701
 H         -4.8720558999        4.4800648046       -2.5463314025
 H         -5.4571403677        3.4330443612       -1.5507756416
 O          7.4203436378        4.5727891410        2.5313113272
 H          6.5949112865        4.1922378654        2.1662413190
 H          7.9858052699        4.7307709718        1.7477345924
 O          6.1900448657       -1.2163602972       -3.8804330379
 H          5.5002758198       -1.4027809259       -3.2262006111
 H          6.8550656585       -0.6576993284       -3.4424813929
 O         -6.8276496771       -2.8600268357       -1.1264684706
 H         -7.6637842315       -3.3054852314       -1.3623987399
 H         -6.6507337387       -2.2843537941       -1.8975284222
 O         -3.3532193090       -1.0165158962       -4.0423121884
 H         -3.6939866282       -1.3303845942       -4.9136581891
 H         -3.9655213747       -0.3378517958       -3.7315173562
 O         -7.9000090762       -5.5358091428       -0.5498417854
 H         -7.0936290325       -5.5634841033       -1.1025627161
 H         -8.5877451045       -5.1832798170       -1.1271408060
 O          2.3088055450       -6.8214283439       -2.1034855466
 H          3.0885296421       -7.1130969023       -1.6149244434
 H          2.5332563601       -6.7842254468       -3.0412617481
 O         -5.6878835676       -4.0274769017        5.4918253000
 H         -6.5349772654       -3.9744675272        5.9407866279
 H         -5.7099273721       -4.8555842275        4.9593496746
 O          5.6276083173       -0.5620747504       -6.3668469745
 H          5.7810473504       -0.8710744303       -5.4437690522
 H          4.7689436254       -0.9148589824       -6.6602891916
 O          9.3987829836       -0.5532621484        4.4681377808
 H          8.6419080354       -0.0894153215        4.8737815190
 H          9.9259034491        0.1385791014        4.0458509143
 O         -1.1466538445       -5.2716692595        5.4031262823
 H         -1.0577751126       -5.4172385147        6.3443692349
 H         -0.3803563345       -5.7403698095        4.9837853717
