  312

 H         -0.5425054112       -1.1597996585        0.9180873604
 C         -0.6112510051       -0.5412956741        0.0100749181
 H         -0.5391308395       -1.1969144471       -0.8712436600
 C          0.5103658646        0.5037878336       -0.0094871841
 H          0.3911098457        1.1518924073        0.8600966292
 H          0.3944399221        1.1152669956       -0.9056411628
 O         -1.7891825170        0.2100258093       -0.0077307040
 H         -2.5646581753       -0.3620747640        0.0026734605
 N          1.8637421187       -0.1172780949        0.0059475211
 H          1.9871272141       -0.7237037740       -0.8163106222
 H          1.9839787968       -0.6890763207        0.8531041602
 H          2.5930828886        0.6072400317       -0.0077051377
 O          1.7165717040       -1.8362880510       -2.0411081018
 H          2.4674176902       -1.7636567466       -2.6642725390
 H          0.9380838609       -1.5043916596       -2.5248508036
 O          1.8926629121       -1.9434397638        1.9813257727
 H          2.5479625280       -2.4315133629        2.5147786119
 H          1.5528450443       -2.5811373227        1.3127883429
 O          2.9250328385        1.7428986290       -2.0684360985
 H          2.1231830437        2.2423820252       -1.8070410964
 H          2.6591766454        1.2941889139       -2.8998175086
 O         -0.2880892477       -0.5656657626       -3.2730458868
 H         -0.6287307968       -0.8271104643       -4.1542236478
 H         -0.8289352776        0.1860195181       -2.9510540369
 O         -1.5373350557        1.6385458508       -2.4893904071
 H         -2.1407837165        1.6771442977       -1.7254997024
 H         -0.8323861252        2.2936961543       -2.3304936642
 O         -1.3984891112       -3.9504080516       -2.9579837893
 H         -0.4353134613       -4.0533699923       -2.9497543002
 H         -1.6366560580       -3.1356582944       -2.4563640442
 O          3.2767447517       -4.1295876429       -1.2945136425
 H          3.3818966442       -3.2077345419       -1.0242898194
 H          3.4856461643       -4.6602225537       -0.4980444348
 O          1.9652606274        0.4874228103       -4.2193270635
 H          1.1166375423        0.0895108682       -3.9114961376
 H          2.5610796348       -0.2641077385       -4.3513373083
 O          3.8742106109       -1.4240283906       -3.6735635513
 H          4.4630346465       -0.9879435488       -3.0286137014
 H          4.1316622491       -2.3722320401       -3.7195709342
 O          2.6731316818        4.4112055689        1.1488162820
 H          2.1388397943        3.6042659490        1.2359232142
 H          2.2449609584        4.9665532671        0.4687256084
 O          5.2611328405        0.3514895808       -2.1632530116
 H          5.8300527563        0.2759284200       -1.3711099799
 H          4.4741081641        0.8429086819       -1.8806384773
 O          1.7931136595        2.0564650449        2.2725842827
 H          2.5978234179        1.6495210988        2.6315898721
 H          1.0648603586        1.6306268746        2.7668586021
 O         -1.7401839368        2.3423378961        1.6572602886
 H         -1.2414241659        1.9523939961        2.3968627350
 H         -1.8557363329        1.6233170306        1.0017874711
 O         -0.1152834926        4.1337124630        0.5638918421
 H         -0.7843336710        3.5001429403        0.8958344890
 H         -0.5892343424        4.8173786640        0.0477779376
 O         -3.4919918366        2.2360876395       -0.6876163754
 H         -3.8139623958        1.7570783177        0.0924338262
 H         -3.4014229104        3.1833817514       -0.4453740233
 O          1.2851802750       -4.4869440545       -3.0457527913
 H          1.9571727469       -4.3276119523       -2.3457036154
 H          1.5350819743       -5.3029586600       -3.4788348834
 O          0.8979475584       -3.4991466846        0.0949286012
 H         -0.0810824988       -3.4966770731        0.1692578879
 H          1.1422671172       -3.0790760748       -0.7437439972
 O         -3.2578185964        1.6925159840       -4.5040406915
 H         -4.0268433019        2.1324548111       -4.1096339634
 H         -2.5462803879        1.7832803676       -3.8291039730
 O          4.1354336159       -1.5511570295       -0.3081561105
 H          4.8403152358       -1.9018543540       -0.9081778681
 H          4.3804284822       -0.6353803657       -0.1115553721
 O          4.1961920412        1.1249647534        0.3859526650
 H          4.1991162239        0.9538384994        1.3501294251
 H          4.5143764159        2.0399515499        0.2770154570
 O         -3.7341742681       -0.8219577150       -3.8373573539
 H         -3.3791978760       -1.5004753509       -4.4496204724
 H         -3.5502560220        0.0711591488       -4.2075238183
 O         -0.7713390283       -1.3043400784       -5.7685183534
 H          0.0742105916       -1.7827718198       -5.7407416827
 H         -1.4746283232       -1.9711273864       -5.7922033799
 O         -2.6197150507       -1.9675354162       -1.6942091319
 H         -2.9136138067       -1.3971227365       -2.4293062838
 H         -3.4000735110       -2.4770810750       -1.4418725082
 O         -5.7707211518       -0.5255068681       -0.2528684417
 H         -4.9248638615       -0.9258988461        0.0411023969
 H         -5.8836787002       -0.7149423403       -1.1986211911
 O         -6.1626861509       -1.2193160511       -2.8982900705
 H         -6.6742890052       -0.3924196428       -2.9508304619
 H         -5.2991528474       -1.0317737777       -3.3406520426
 O          6.7965832102        0.2212806380        0.0430021317
 H          7.1669407446        1.1234558449       -0.0535603958
 H          7.5229113059       -0.4112033591       -0.1165066272
 O         -0.3088595965        1.0429972874        3.5362724205
 H         -0.0807711978        0.0935973242        3.6613062224
 H         -0.2770450105        1.4365695038        4.4316941170
 O          4.7199180787       -2.8503481829        1.8809075127
 H          4.4257951941       -2.3210195369        1.1002624934
 H          5.6897291895       -2.9084641183        1.7920073247
 O         -1.6836261473       -3.6281039010        0.6373595768
 H         -2.3356873015       -2.9085540089        0.5424590403
 H         -2.0639431598       -4.3769957199        0.1380719676
 O         -3.7778722124       -1.9243368268        0.8090069060
 H         -3.2642065353       -1.4430657287        1.4976209060
 H         -4.2684761457       -2.6141129407        1.2981589151
 O          5.0080215309        3.7021888769        0.2299133137
 H          4.1680390380        4.0674012901        0.6035358850
 H          4.9268988825        3.8597746691       -0.7373552702
 O          4.3374433077       -4.0467851698       -3.7887468393
 H          5.2898617431       -4.1550436064       -3.7999851967
 H          4.0687991914       -4.1985144957       -2.8603202208
 O          5.8596509737       -2.6826906890       -1.8814458733
 H          6.1859323995       -3.4525748591       -1.3724367795
 H          6.6189652708       -2.1745187263       -2.2174155016
 O          5.9353281920        2.0421730925       -4.1230816278
 H          5.7601219881        1.3790494483       -3.4178514200
 H          5.9325359574        2.8866947563       -3.6581457027
 O         -5.4848003558       -0.8359666975        3.3563230994
 H         -5.9353397445       -1.4759149513        2.7597968141
 H         -4.9852437048       -1.3457792294        3.9964864743
 O         -3.5661680303        4.8729757876       -0.2039443970
 H         -3.5249936517        4.9098559744        0.7753210884
 H         -4.5095217697        4.9479501014       -0.4414939794
 O         -5.0885441470        2.6870293885       -2.7288585653
 H         -4.4913076324        2.4514370592       -1.9747706622
 H         -5.4200222422        3.5679660365       -2.5363735817
 O          4.0908056276        0.7806588613        2.9960032558
 H          4.6491897778        1.4948631776        3.3314757723
 H          4.3292095423       -0.0413590110        3.4796980110
 O          0.6655648898        3.0549136231       -1.7437119364
 H          0.9510809962        3.7191782329       -2.3976652789
 H          0.4746432204        3.5192485216       -0.8983056419
 O          7.5628114536        2.8141439076       -0.0982283166
 H          7.7005408717        2.7546842564       -1.0531344205
 H          6.7199435313        3.2697545728        0.0438032418
 O         -5.0653814259       -3.4310738279       -1.6324503907
 H         -5.7262877576       -3.8555396919       -1.0591337625
 H         -5.4965070798       -2.6369711735       -1.9867775450
 O         -3.4115304229        4.3800296495        2.4034021569
 H         -2.8243316130        3.6336155831        2.1754453615
 H         -4.2583702654        3.9806606268        2.6695654323
 O         -4.0837554411        0.8010975090        1.6342725918
 H         -3.5357819837        1.1986002125        2.3250476341
 H         -4.6660545421        0.1911701218        2.1120252612
 O         -2.9361144463       -5.2251879898       -1.1706474694
 H         -3.7400674436       -4.7264804728       -1.3612604997
 H         -2.3329314664       -5.0015579221       -1.9064586728
 O         -3.2730174254       -2.8468752906        4.4097073091
 H         -3.9130934387       -3.2651326679        3.8017125679
 H         -2.4802676821       -3.4041324892        4.3175111598
 O         -0.9444692218       -3.7940286400        3.2777697452
 H         -1.2950280764       -3.6988431511        2.3687652808
 H         -0.5487223869       -2.9395468554        3.5228370023
 O         -2.1786830693       -1.0677718841        2.6983498974
 H         -2.5663879191       -1.6114438448        3.4098328918
 H         -2.0686061174       -0.1762824999        3.0399361511
 O          3.9410380444       -5.2321864490        1.0412260963
 H          3.2753102648       -5.6625576305        1.5805649756
 H          4.1818847140       -4.3950801098        1.5107106637
 O          4.7660633364       -1.4838021747        4.1990837608
 H          5.7048690426       -1.5566645575        4.4115890105
 H          4.6172953506       -2.1264175005        3.4732942938
 O          7.3879672067       -2.8698201682        1.5760820347
 H          7.5527928972       -2.4565997635        2.4493058476
 H          7.9280039426       -2.3918519465        0.9353188949
 O         -6.9011198527       -2.1263613266        1.5437918474
 H         -7.8102289194       -1.8687757024        1.8101000108
 H         -6.6356311512       -1.4880328006        0.8403185962
 O         -1.7907278833        3.8152342503        4.5763355306
 H         -2.4202987210        4.4124666548        4.1512669325
 H         -0.9328479603        4.0036580442        4.1233466178
 O          0.4624142923        4.3096243995        3.2573466117
 H          1.0248187662        3.5262805299        3.1372535202
 H          0.2304849662        4.5670621751        2.3504381859
 O          8.2968329901        1.5539561893       -2.4114571826
 H          9.1188871394        1.3419082197       -1.9336580553
 H          8.5216765806        1.8317670995       -3.3005069465
 O          7.7744188017       -1.1258604810       -2.9737190640
 H          7.7921341676       -0.1884320965       -2.7156901930
 H          7.3279401959       -1.1179439487       -3.8460135150
 O         -6.1922632383        4.4315870198       -0.6530252588
 H         -6.0648624897        3.5031118601       -0.3479525691
 H         -6.6234893782        4.8462395043        0.1174886888
 O         -6.1951353143        2.0414479261        0.4928963472
 H         -7.1573259910        2.0757821695        0.6507537085
 H         -5.9927120125        1.1337606761        0.1931240488
 O         -7.2717354013        1.1709865369       -2.3637827233
 H         -7.9394456778        1.8794093240       -2.3233184282
 H         -6.4335811494        1.6583271924       -2.5100582667
 O         -8.8140645215        2.1592556417        1.1868632104
 H         -9.1282599601        1.4609160527        0.5948828383
 H         -8.5989260090        1.7283703066        2.0325765391
 O          4.6122748938        3.8039593466       -2.3794283781
 H          3.9892053701        3.0365548120       -2.3503362107
 H          4.1095129361        4.5297641311       -2.7541760019
 O          1.9539536926        4.6243842401       -3.5677650940
 H          2.4830779035        3.9734957561       -4.0844226312
 H          1.2551302013        4.8881590098       -4.1706408275
 O         -1.3622477891        4.3597532301       -3.5592161013
 H         -0.7563606022        3.7488974545       -4.0367128958
 H         -2.1229926815        4.4752341654       -4.1268815082
 O          1.5508932432       -2.5496466641       -4.9967392488
 H          1.4187774773       -3.2125009144       -4.2945799133
 H          2.3906449667       -2.7630264040       -5.4039472056
 O          7.1723120467        0.8492696586        2.6205474779
 H          6.6955623792        1.6591818888        2.8583437597
 H          6.8097991202        0.5428518304        1.7626443034
 O          0.3574689286       -1.4575865201        4.0593900094
 H          0.8749763321       -1.6060003917        3.2325227402
 H          1.0739005570       -1.3087800868        4.7317220403
 O          2.4156583072       -0.8587569682        5.5360786697
 H          3.2531584856       -1.1771795657        5.1632309297
 H          2.4477951206        0.1085950765        5.4559993451
 O         -4.7826208822       -3.8465006376        2.4001052090
 H         -5.7230761749       -4.0296056769        2.3850740842
 H         -4.3309104169       -4.6713006523        2.0746467621
 O          5.6222298638        3.0799570019        2.9683048038
 H          5.5448216613        3.3928480145        2.0573616667
 H          4.9849080336        3.6019196068        3.4781678360
 O          3.3008088439        4.2611466928        3.8363815937
 H          2.8238030198        4.9452445200        4.3079802903
 H          3.0512315176        4.3752562231        2.8984635072
 O         -1.2006267768        5.7681902846       -1.2330476866
 H         -2.1169236518        5.7010869987       -0.9198391719
 H         -1.2043472080        5.3056457129       -2.0914459665
 O          2.8882387236       -3.6966045391        3.7604548454
 H          2.7121327112       -3.6241395146        4.6980391482
 H          2.3179266495       -4.3981416799        3.3993519682
 O          8.8639868290       -1.4630427945       -0.4553177467
 H          8.6293756990       -1.7415029224       -1.3517428592
 H          9.5026938215       -0.7347843294       -0.5784191769
 O          0.2613526158        2.7579532753       -4.9059186856
 H         -0.2899199616        2.3161767423       -5.5903937729
 H          0.8565387275        2.0745745479       -4.5843683005
 O          1.1358564016       -5.1780773710        2.2811382052
 H          0.3769617023       -4.7748792293        2.7610040985
 H          1.1852727660       -4.6973763486        1.4381204379
 O          9.4607446656        1.8059284668        1.6119145809
 H          9.0930307246        2.6237095877        1.2569427751
 H          8.6950560357        1.3877190570        2.0712344655
 O          2.2677552978        1.8858938724        5.1001301716
 H          1.5002668171        2.1368253180        5.6242301242
 H          2.6726259239        2.6972632160        4.7616179886
 O         -0.4339879145        1.9732469814        6.0514777599
 H         -0.9939924901        2.7439619076        5.8750889520
 H         -0.9927940853        1.2736639614        6.4046541703
 O         -1.3382831525        1.3333838656       -6.4611755259
 H         -2.1694474126        1.4629075362       -5.9834514133
 H         -1.1085888141        0.3970872150       -6.3641568933
 O         -3.1937654305        1.5469381718        4.1136447293
 H         -2.8915592082        0.8762677398        4.7432135596
 H         -2.6725753088        2.3555655724        4.2974637287
 O         -3.6478786269       -5.9785792730        1.4297798897
 H         -2.7271319398       -6.2097447890        1.6356191367
 H         -3.6756860261       -5.9769475993        0.4655333143
 O         -5.5505151889        2.7919210943        3.0399319771
 H         -4.9062963254        2.2603174308        3.5329232978
 H         -5.6013213552        2.4031866329        2.1351562972
 O         -7.0915044402       -4.2109706632       -0.0694843792
 H         -7.0340555619       -3.4944297821        0.6072590895
 H         -7.8686984965       -4.7183818877        0.1787400542
 O         -7.6095866233        0.9692692109        3.3783302857
 H         -6.9327793846        0.2742380097        3.4472922276
 H         -7.1142451319        1.7874681675        3.5378398963
 O         -8.6957702524       -0.1054100180       -0.3719192572
 H         -8.7972580487       -0.9688305239       -0.8181587022
 H         -8.1071600340        0.3847006690       -0.9734082843
 O          6.4743466245       -4.7393490544       -0.2770752817
 H          6.9306639905       -4.3139607420        0.4621067198
 H          5.6898097919       -5.1568783939        0.0988037734
 O          1.7047090142        5.8048218772       -0.9961750205
 H          1.9107832022        5.5575633414       -1.9068337300
 H          0.7864707600        6.0993228237       -1.0002134750
 O         -1.9643467798       -0.5145714067        5.5980335020
 H         -2.5500735060       -1.2689387325        5.7132160685
 H         -1.1519102520       -0.8754290527        5.2135961899
 O         -0.9995988410       -6.5558983303        1.1658265761
 H         -0.1727064636       -6.2968519525        1.6011555745
 H         -0.8172103312       -6.6584332003        0.2314647713
 O          6.2058662934       -0.6604452199       -5.1190972188
 H          5.3153945190       -0.9181607483       -4.8361650756
 H          6.2101065771        0.3026585704       -5.1435329601
 O         -7.4051693044        4.6171183903        1.7411960134
 H         -6.8064609479        4.2483051249        2.3996556481
 H         -8.1147019567        3.9728445166        1.6340593359
 O         -8.5852580177        3.4068998200       -1.6387448564
 H         -9.1332836377        3.3948026600       -0.8516827413
 H         -7.8007637523        3.9399041193       -1.4196373185
 O         -2.7630739747       -2.9942647441       -5.0901395795
 H         -2.2317400000       -3.4418235601       -4.4004110245
 H         -3.6243750987       -3.4490250549       -5.0733369823
 O         -8.4684622148       -2.4474009202       -1.7044060521
 H         -8.0144089551       -3.1410978576       -1.1902960255
 H         -7.8511616915       -2.1574413296       -2.3833705785
 O         10.2813178516        0.8119330509       -0.6685671082
 H         11.2309440532        0.9239715690       -0.7012243221
 H          9.9785281622        1.1982277092        0.2005757069
 O         -5.1993528551       -3.9126194737       -4.3767422466
 H         -5.9091882375       -3.2913837066       -4.5479171758
 H         -5.0910811954       -3.9518845102       -3.4131147626
 O         -9.5793997588       -3.4974653724        0.8425722463
 H         -9.9165259831       -3.1781460714        0.0018778162
 H         -9.7702059889       -2.8101816206        1.4895049908
 O         -9.2393354913       -1.0074365417        2.1424493439
 H         -9.1866228979       -0.5792558060        1.2684343215
 H         -8.9897443711       -0.3465054620        2.7984920844
 O          3.4077548058        2.8142244311       -4.9314165801
 H          4.3298301270        2.5383708744       -4.7829403260
 H          2.9001001453        2.0099264448       -5.0796480572
 O          7.5589975590       -1.4875804140        3.9018718269
 H          8.5139155765       -1.5599542744        3.9948407177
 H          7.4193853489       -0.5966823275        3.5232554329
 O          9.8756474195       -1.0487489315        2.4092929722
 H          9.8712294130       -1.4272230089        1.5266687206
 H         10.1188563708       -0.1236336266        2.3214559804
