  461

 H          0.4630927076        1.1941025328        0.8323452958
 C          0.5529035761        0.5095402428       -0.0251092080
 H          0.4633421182        1.0989800596       -0.9466436099
 C         -0.5779259334       -0.5149488602        0.0205351875
 H         -0.4518492550       -1.1270258238        0.9278134321
 H         -0.4840892691       -1.1748678658       -0.8448928486
 N         -1.8603253886        0.1647702477       -0.0623309404
 H         -2.6131021663       -0.5138473280       -0.0751527667
 H         -1.9956541841        0.7570092259        0.7508171929
 O          1.7808081028       -0.1833448060        0.0209869105
 H          2.5006908393        0.4507195085       -0.0567171282
 O          4.3066829956       -0.4801838662       -3.7045137291
 H          4.1606582036       -1.3034916432       -4.1988118837
 H          4.0198304887        0.2505234243       -4.2901648193
 O         -1.8614965243        1.6269640401       -2.1315995703
 H         -1.1512733424        1.3275133034       -2.7493089036
 H         -1.8349795275        0.9778870772       -1.3082697116
 O          1.8181818559       -0.4709673519       -2.7474820588
 H          2.7760115630       -0.4273869340       -2.9499997223
 H          1.7754843325       -0.7701836972       -1.8266140039
 O         -4.0002693362        0.2489225660       -3.0016165555
 H         -3.1572773560        0.6651936954       -2.7424082169
 H         -4.3404999288        0.7797466909       -3.7508089805
 O          3.3226227329        1.6485561002       -1.0136646340
 H          2.7146303779        1.7724689456       -1.7544464959
 H          4.2134800517        1.7817507979       -1.3882290521
 O         -4.5717797383       -1.0705881882       -0.7339793725
 H         -4.0561033345       -1.9263285765       -0.8011581992
 H         -4.4237910184       -0.5957754057       -1.5680945612
 O          3.1293157983       -2.3558442772       -1.1542017665
 H          3.9144407533       -2.6560960243       -1.6306309857
 H          3.4442766882       -1.8000143202       -0.4182506556
 O         -0.0594632087        1.0393638252       -3.8778313913
 H          0.3250180023        1.8523651329       -4.2504834498
 H          0.6620653609        0.5311496883       -3.4513260198
 O         -4.2662946658        0.6786148941        1.3337561927
 H         -4.8653926437        0.4768663761        2.0883473096
 H         -4.4116759008       -0.0221300574        0.6725504572
 O         -0.6038683107        2.8920337171        1.9209280773
 H         -0.6182321306        3.8123831425        2.2753727341
 H         -1.2949837036        2.3805906715        2.3751394070
 O          1.9694228137        2.8771548265       -2.9852907363
 H          2.7373467876        3.4073221137       -2.6776866907
 H          1.2529371004        3.5298240447       -3.0774972583
 O         -0.5970199066        3.5845241033       -0.6693479383
 H         -0.4597166554        3.3269950538        0.2649278553
 H         -0.9938174589        2.8232195010       -1.1234662022
 O          4.3156282640       -0.9536922953        0.7794063156
 H          4.2473914279       -1.4618599239        1.6138693687
 H          4.1034742378       -0.0296289283        1.0318291762
 O          1.6691835961       -0.9524507046        3.6900501887
 H          1.8053899088       -0.8037783723        4.6499008289
 H          1.6395188547       -0.0559397762        3.2990603914
 O          1.0951737858       -1.2691313223       -5.2285408162
 H          1.2858633142       -1.1399259015       -4.2807315135
 H          0.4132265479       -1.9542396615       -5.2771666930
 O          1.5044183920        1.6135588501        2.9692447062
 H          0.8178616248        2.1447248867        2.5150388503
 H          2.3223419669        1.6853153982        2.4305540081
 O         -2.2360560472        1.0259259036        3.0619765314
 H         -1.7927963387        0.2197360069        3.3772285937
 H         -2.9838825724        0.7505294873        2.5030889428
 O         -0.7806190364       -3.6256066131        0.4748248605
 H         -0.6106918622       -4.4157722837        1.0283975433
 H         -1.4653276589       -3.0977798452        0.9332001415
 O         -1.2091279791       -2.2351860853       -2.5728607752
 H         -0.4576999961       -2.7467024271       -2.2236012871
 H         -1.2332308999       -2.4647622232       -3.5180113241
 O          0.9626249852       -3.6396067229       -1.8133241797
 H          1.7402458583       -3.1547693775       -1.4679900434
 H          0.9833443101       -4.5436766089       -1.4430316386
 O          1.4498082419       -2.4987430164        1.3602423769
 H          1.6318008416       -1.6265234800        0.9663913429
 H          0.6855097138       -2.8816384018        0.8737275939
 O         -5.8769796653        1.6802785689       -0.7580170926
 H         -5.0051361962        2.1085509519       -0.7416558642
 H         -5.9780941148        1.0662420613        0.0031527954
 O          5.6892488385        1.8093698679       -2.2643025837
 H          5.7309395162        0.8381100902       -2.1967258130
 H          5.7521971558        2.0524887324       -3.2101607626
 O         -3.8137239388        3.2182018260       -1.2653708042
 H         -3.4180196164        4.0938228856       -1.0240510659
 H         -3.0777523295        2.6475064123       -1.5311981907
 O         -3.7969999882        3.3194185808        1.6465010392
 H         -4.2543609104        3.9039854130        1.0169007875
 H         -3.9181222447        2.4018708748        1.3522341783
 O          1.8915710579        3.3281118378        0.6607833442
 H          2.4560338742        2.8029569602        0.0699009979
 H          1.7204833544        4.1756912080        0.2267958012
 O          3.8217065879        1.4244922562        1.7434343767
 H          4.3694274864        1.2470829046        2.5308605722
 H          4.1607271393        2.2335528709        1.2958241855
 O          5.8929620233       -0.6996693999       -1.3380760352
 H          6.7517805558       -0.4119476661       -0.9618978241
 H          5.2836631710       -0.7572316911       -0.5773856654
 O         -5.2692948447       -2.0816819299        1.6644241827
 H         -5.9268705431       -1.3919443584        1.4736880858
 H         -5.4223275837       -2.8162512018        1.0341261225
 O          7.0197987190       -0.9072914560       -4.0124774032
 H          7.5572397896       -0.1607756195       -3.6612403363
 H          6.1105213319       -0.7453169127       -3.7050886124
 O          4.7394540978        3.5705337752        0.5229463976
 H          5.6452177164        3.3301607735        0.3025969291
 H          4.3361748813        3.8408072898       -0.3217952927
 O          6.8314929713        1.5678882165        1.9862756030
 H          6.2989695552        2.1445516204        2.5734952394
 H          6.9767725412        2.0785927014        1.1636547602
 O          5.5039499491       -3.0480828812       -2.3883805632
 H          5.7600987811       -2.1428271563       -2.0788581840
 H          5.1798044555       -2.9561422946       -3.2954842085
 O          4.0311993446       -2.1709564538        3.1258539221
 H          3.0929541883       -1.9365948590        3.2640554123
 H          4.1151455257       -3.1390875653        3.1039401711
 O          1.8620553682       -0.5492258956        6.3274420981
 H          1.4840346172       -1.4104334814        6.6354939323
 H          1.1755359886        0.1092772678        6.5022983861
 O          4.9767925129        0.3427539898        3.9104400564
 H          4.6199872564       -0.5566291936        3.8499072483
 H          4.4886202780        0.8130496488        4.6078831424
 O          6.0069305737       -3.3500610802        0.8142515196
 H          5.0715646928       -3.6093460492        0.9530257533
 H          6.1045283049       -2.4389098242        1.1518583277
 O          1.6767452451       -4.0526503231       -4.2969476104
 H          1.3879421633       -3.8299860063       -3.3740966013
 H          0.8844591242       -3.9474021504       -4.8385925914
 O         -6.9416527790        0.1103233610        1.0831725598
 H         -7.2449934383        0.8267542964        1.6690112081
 H         -7.6662664083       -0.0100935992        0.4348284742
 O         -7.1057440447       -1.8801194344       -0.9895582949
 H         -6.1619869580       -1.6639893305       -0.8297894403
 H         -7.1188618019       -2.7279325183       -1.4729221975
 O          3.4309200040       -4.1184602016        1.0490825661
 H          3.4964976441       -4.3566538517        0.1052475988
 H          2.7092610384       -3.4505246870        1.1333138280
 O          5.6135878187        2.5207142302       -4.8767030396
 H          4.6655065905        2.3053620074       -4.9808073225
 H          6.0483806882        1.8557270142       -5.4448726219
 O          3.1550406809        1.5740941055       -4.9776650846
 H          2.5677484472        1.3876006142       -5.7362788037
 H          2.6358723472        2.0595200230       -4.3032577113
 O         -2.4864297218        5.4412362368       -0.8804741063
 H         -1.6797755312        4.9062152416       -0.7516704421
 H         -2.5243361090        6.0236601107       -0.0861681566
 O          4.0934782682       -3.0172297939       -4.7854538684
 H          4.0824771563       -2.6620163030       -5.6822937170
 H          3.1912878762       -3.3793970940       -4.6229143873
 O         -2.5565038381       -2.2249030214        2.0075390121
 H         -3.4640663937       -2.0561728012        1.7098327883
 H         -2.6651728802       -2.8833494242        2.7142486256
 O         -3.1716384541       -3.2048103169       -1.0382972084
 H         -2.4177671296       -2.8347943342       -1.5498077937
 H         -3.6964854499       -3.6940535156       -1.7073642476
 O         -4.5493050793       -4.1538909082       -3.1155714952
 H         -4.5750198350       -3.3729881095       -3.7006508764
 H         -5.4693818189       -4.3613640599       -2.8993238789
 O         -1.9811506140        1.0181736592       -5.7831676381
 H         -1.3227668867        0.9040238617       -5.0687303601
 H         -1.5126256870        1.4076542303       -6.5225819256
 O          0.0841626593        4.8205728458       -2.9094988154
 H         -0.0556276979        4.5438132389       -1.9847202771
 H         -0.7782519333        4.7321623569       -3.3405399721
 O         -2.9616232380        4.5686546016        3.9242661103
 H         -2.9008386088        3.8908785899        4.6285704160
 H         -3.1140911853        4.0737053285        3.1006241255
 O         -2.6867315814        2.3454599063        5.3873052663
 H         -2.6015543528        1.8463477365        4.5506262998
 H         -3.4671280895        1.9727862160        5.8469678952
 O          6.8033073149       -1.1484467847        2.1153559990
 H          6.5075921275       -0.2240298489        2.1418594249
 H          6.6717467547       -1.5064170620        3.0209881588
 O         -5.5050688290        0.2603511424        3.5897053181
 H         -4.8734643342       -0.2302245442        4.1495448017
 H         -6.3629776642       -0.2092954210        3.6688283204
 O          9.4803127729       -1.1663147738        2.1186695293
 H          9.7967384168       -2.0888805895        2.0735564201
 H          8.5019991150       -1.2380783650        2.0537742833
 O         -0.9445952968       -0.9969339791        4.2885664766
 H         -0.0464326496       -1.0353986285        3.8986795847
 H         -1.0636861133       -1.8784952788        4.7077220395
 O         -2.1883040685        3.7843272943       -4.0480018391
 H         -3.1049998266        4.0744521063       -4.0409561484
 H         -2.1361072214        3.0150652819       -3.4621843808
 O         -5.0746868579        3.7861622607       -3.5144044229
 H         -4.6882686548        3.5174983762       -2.6423912389
 H         -6.0275760811        3.6042657855       -3.4360465305
 O          1.2481020946        0.9891691160       -6.7782994910
 H          0.9451714720        0.2252959662       -6.2547971495
 H          0.7748586930        1.7739528050       -6.4691691619
 O         -5.6436486027        2.9252978070        3.6095923205
 H         -5.4739504686        1.9832663790        3.8117008864
 H         -4.9425463597        3.1938056237        2.9861205460
 O         -0.4623833436        0.9747251834        6.1413998806
 H         -0.6752623132        0.2685721278        5.4994950578
 H         -1.2390747858        1.5648491625        6.1141098180
 O         -3.8784338948       -1.2902163212        5.0266166281
 H         -4.3654500062       -2.1096217189        4.8392887438
 H         -2.9813939595       -1.3882343897        4.6945402356
 O         -8.1642994951       -2.5288760210        1.4004536920
 H         -8.2729693669       -3.4894409359        1.2263502663
 H         -7.7702313728       -2.1906196827        0.5632995975
 O          3.9380539822        4.3666316513       -1.9612050330
 H          4.8048689392        4.4504504596       -2.4151901398
 H          3.4571958158        5.2039945083       -2.1094861439
 O          5.4080055644        3.2316834437        3.5355062737
 H          4.6032537940        3.6628055626        3.1590195198
 H          5.1371485955        2.9236264418        4.4096201509
 O         -7.0166493838        0.2547674957       -2.6214185339
 H         -7.2698091864       -0.5374033309       -2.1020681346
 H         -6.3633989646        0.7000694270       -2.0472914293
 O         -9.0514757354        0.2045820266       -0.5343688064
 H         -9.6721877729       -0.4294020399       -0.1197364602
 H         -9.4122163359        1.0987824241       -0.3536508913
 O          7.1909342086        2.8546635685       -0.3547642628
 H          8.1675333706        2.7321297804       -0.4566422554
 H          6.7645173458        2.4638690963       -1.1515991312
 O         -7.7532804584        2.4625396306        2.1923301769
 H         -7.6910576626        2.9536689295        1.3551890042
 H         -6.9423678695        2.6797346753        2.7283487915
 O         -7.4188060728        3.6983229817       -0.2426962609
 H         -6.7283365294        4.3738101136       -0.0466612417
 H         -6.8778193291        2.8867949322       -0.4324547283
 O          9.7920897099        2.5547898650       -0.3638520979
 H         10.1501762510        1.6506041229       -0.3248800973
 H          9.8977668851        2.9351344531        0.5319546008
 O          1.7195053098        6.0510354300        0.1684071925
 H          1.1225236921        6.2541948170        0.8918433872
 H          2.6261342734        6.2036260442        0.4835436328
 O          8.3362968438       -2.5083543182       -0.4533424769
 H          7.4130981174       -2.7872034428       -0.4589487076
 H          8.6856463802       -2.5906626254       -1.3775220706
 O          0.8916104588       -3.8976144022        3.5963674931
 H          1.6793254030       -3.9874214169        4.1689953329
 H          1.1030113783       -3.2196914682        2.9272081852
 O         -4.5334906553       -1.8861650631       -4.5463399873
 H         -4.1889301783       -1.2292054439       -3.9100250409
 H         -5.3473909525       -1.4942372416       -4.9061326910
 O         -5.7044230786       -4.2868159992        0.1850530585
 H         -5.7463879706       -4.7636387801        1.0388503740
 H         -5.1572704977       -4.8554039552       -0.3928241552
 O         -7.7633053637       -1.1808499650        3.7077070238
 H         -8.4787759127       -0.5231563527        3.7541677174
 H         -7.8903702252       -1.6481415094        2.8604173642
 O         -5.3163298797        5.1498898591        0.2839508934
 H         -5.1368844358        5.6853546883       -0.5167767507
 H         -5.1624877714        5.7090167555        1.0700216092
 O         -2.4197920939        6.8417899675        1.3427234506
 H         -3.2341690687        6.8017813857        1.8587934595
 H         -1.7311472339        6.4153161702        1.8796761719
 O         -3.0220627165       -5.4349626232        1.4034184237
 H         -3.0075415616       -4.7619709048        0.7083682930
 H         -2.1168144431       -5.7534167778        1.5218757281
 O         -1.5192393185       -5.5381387698       -1.3746123289
 H         -0.6899963066       -6.0286973605       -1.2890193779
 H         -1.3676863495       -4.6977925088       -0.9026429434
 O         -6.5965742767       -0.2151435319       -5.1596269014
 H         -6.6984671303       -0.0595874317       -4.1852004663
 H         -5.9656587513        0.4577901048       -5.4545742086
 O          8.4974396773        0.9617037479       -2.8439443461
 H          8.3412960493        0.8230757426       -1.8961240283
 H          9.3857039885        0.5528692425       -2.9814593346
 O          7.2778788087        0.2477257782        5.4397446843
 H          8.0283969575        0.6276257156        4.9520043505
 H          6.4858108104        0.5057934957        4.9359018039
 O          3.0131573527       -4.0442920264        5.2290239901
 H          3.4923515717       -3.2260299909        5.4503142104
 H          3.6243916857       -4.5694210096        4.6845678954
 O          4.1317410238       -5.2032152622       -1.2435553157
 H          4.7537353488       -4.6116048531       -1.6853633119
 H          3.6207086649       -5.6483443275       -1.9525065735
 O          8.9936233502        1.1215204902        3.4880383657
 H          9.3492764933        0.2903020359        3.1311539592
 H          8.1758061134        1.2911201736        2.9675519027
 O          3.2611955523        4.4775406339        2.6173928654
 H          2.7331706141        3.9451968804        1.9730111868
 H          3.7219579609        5.1299800148        2.0643851114
 O          1.1039330906       -6.2241472393       -1.0623137949
 H          1.5629749329       -6.4156332877       -0.2203436027
 H          1.6546207659       -6.5543431639       -1.7844855040
 O         -0.8583429521       -3.1860740571       -5.1126201510
 H         -1.4781777534       -2.7282085250       -5.7219038333
 H         -1.3315574896       -3.9990852458       -4.8043796837
 O         -0.6529929054        5.3600291701        2.8724011469
 H         -1.4294294581        5.2018126236        3.4486997016
 H          0.1243388592        5.4228535693        3.4824270506
 O         -7.6692994011        2.9483274198       -2.9403651971
 H         -7.6700841234        3.3731096323       -2.0651684064
 H         -7.5290547356        1.9958646523       -2.7741839663
 O          4.7522472456       -4.9203654089        3.3447281417
 H          5.7064286020       -4.8767677022        3.5086265472
 H          4.6708527875       -5.4715976925        2.5441661176
 O         -3.2959960750       -4.2179684514        3.7402993671
 H         -3.2830857604       -4.8103154538        2.9550336496
 H         -4.2166549031       -4.1596458334        4.0127971650
 O          7.4040948522       -4.2490719329        2.9759095332
 H          7.3467389159       -3.5552807089        3.6504278418
 H          6.8924658112       -3.9197833462        2.2072409516
 O          6.6916263359       -2.1618017296        4.5737398416
 H          7.0641655577       -1.3683941384        5.0274775885
 H          5.7667805206       -2.2000859071        4.8499440902
 O          9.6634098872       -3.7872771097        1.5168133305
 H          9.1997635140       -3.4030888362        0.7430507917
 H          8.9732246929       -4.0840797084        2.1381895272
 O          8.1432659143        0.1014871910       -0.2574561389
 H          7.9791153164        0.3803437762        0.6459263924
 H          8.4483005369       -0.8331735075       -0.2353497267
 O         -9.5317252749        0.8679687774        3.4676035153
 H        -10.3590485909        0.8229512131        2.9734466826
 H         -8.9815746708        1.5121096408        2.9875464778
 O        -10.5443621843       -1.6426654027        0.7680552584
 H         -9.7291364788       -1.9861321422        1.2036202857
 H        -10.9537498292       -0.9996530792        1.3598339049
 O          1.4970893252        2.6650296365        5.3627429411
 H          1.5123131572        2.3236088878        4.4345717381
 H          0.7822983082        2.1538163394        5.7876946624
 O          4.2758288787       -1.6743229302        5.9465743545
 H          4.7790642440       -1.6174404123        6.7581677299
 H          3.4726228880       -1.1394341447        6.0865335793
 O         -5.7897184478       -3.0422278176        4.0529349539
 H         -6.5686494676       -2.5494191670        4.3413993836
 H         -5.5758943439       -2.6581341547        3.1598888007
 O          6.2359091691        4.6746331199       -3.2931684601
 H          6.0499948644        4.0788374582       -4.0342162895
 H          7.1433093554        4.4166093036       -3.0346231163
 O         -4.5977917510        1.6857461434       -5.1614383070
 H         -4.7109214024        2.5637976922       -4.7503817775
 H         -3.6911227492        1.6118060568       -5.5019631931
 O         -8.3233032895       -2.3485425225       -4.3293589424
 H         -7.7634978460       -1.8056408794       -4.8922136077
 H         -8.9291041044       -1.7325639497       -3.8741881819
 O          2.2478273816        6.3860088814       -2.5270995625
 H          1.4174279510        5.9509597300       -2.7904347377
 H          2.0873133369        6.6275744771       -1.6046050116
 O         -2.1489928781       -5.1871709868       -4.0025798504
 H         -3.0818445250       -4.9665163447       -3.8600792822
 H         -1.8074673077       -5.3626350042       -3.1065791319
 O         -4.8368117477        6.1940172128        2.7227974442
 H         -4.2927666462        5.6769989402        3.3419718574
 H         -5.7596772608        6.0018220479        2.9462794810
 O         -9.9744635699        2.6960966428       -0.1169124507
 H        -10.3726355972        2.8099812560       -1.0028087692
 H         -9.1798736491        3.2469783911       -0.1133294139
 O          8.6688249890        3.6743528092       -2.7279713376
 H          8.5947353954        2.7308577268       -2.9687536969
 H          9.3299148417        3.6958332265       -2.0291447583
 O          8.8894428395       -2.6377579671       -3.0059061671
 H          8.6612599935       -3.5616860605       -3.1816466397
 H          8.2302840965       -2.0880168160       -3.4703393010
 O          7.3993007607        4.8052210187        2.3196717970
 H          6.6867841529        4.3341313208        2.7789366342
 H          7.0469760317        5.1320709945        1.4870408769
 O         -0.2998162117       -5.7356676754        2.0477652331
 H          0.0732051941       -5.1724523343        2.7539384008
 H          0.4523548001       -6.2647414229        1.7494264484
 O          4.0225495279        2.0491924498        5.7349601054
 H          3.0708334184        2.3140327597        5.6456192722
 H          4.2258324076        2.0616049755        6.6678846750
 O         10.7197181027       -0.4107323023       -2.7042130424
 H         10.4709864035       -1.3428852266       -2.7640313356
 H         10.9776063111       -0.2649981165       -1.7857082802
 O        -11.4590356559        0.9205591004        1.3523263271
 H        -11.0036604661        1.7277496954        1.0708198810
 H        -11.9141667975        0.6316726622        0.5453291195
 O          6.5658286091        5.5149608790       -0.4886150233
 H          6.9117673725        4.6002296866       -0.5274852558
 H          6.5356437342        5.8054815698       -1.4035252766
 O         10.9599333136        0.0495789199        0.1701064850
 H         10.3643217420       -0.3876968723        0.8115336514
 H         11.5750580824        0.5552001502        0.7293767108
 O         -4.7518534409        1.0129421684        6.4431829201
 H         -4.5179623035        0.1022834558        6.2288869968
 H         -5.6856958863        1.1302471099        6.2174216018
 O          1.4423759886        5.2577305212        4.4474451370
 H          2.1713378542        5.0750798063        3.8243315834
 H          1.3631870945        4.4395362323        4.9656062941
 O          0.3251389135        3.2151105023       -5.4405427843
 H         -0.4787241262        3.6942487022       -5.2142791369
 H          1.0754536676        3.8278059129       -5.3421958880
 O          2.7939892722       -6.3062433629       -3.2641384811
 H          3.6601733673       -6.3161909574       -3.7130578887
 H          2.2892745419       -5.6189106224       -3.7381356979
 O          2.2564717452       -6.4835227404        1.3606657559
 H          3.0033917217       -7.0824218112        1.4288208682
 H          2.6622524560       -5.5842277733        1.4045294446
 O         -4.7844302487        6.2551600275       -2.1093853225
 H         -3.8348214696        6.2301697730       -1.9230602009
 H         -4.9536342957        5.5708951203       -2.7718018587
 O         -1.1637852031       -3.4593906913        5.1958316356
 H         -0.4421939053       -3.7320650459        4.5865421290
 H         -1.9711857815       -3.8713733790        4.8468953579
 O          0.9627654924       -2.9556233934        6.8683503739
 H          1.5863532288       -3.5475189202        6.4286051547
 H          0.0916058095       -3.1453661372        6.4903979940
 O          9.7477858998        3.4291756003        2.1816923038
 H          9.5059151352        2.7093151635        2.7900727079
 H          9.0029358152        4.0575739092        2.2302846488
 O          5.0565829896       -6.4765605950        1.0419196074
 H          6.0116182638       -6.5133624540        0.9209739359
 H          4.7254136628       -6.1014382137        0.2063439785
 O         -7.2479561407       -4.0470640437       -2.6030809934
 H         -7.9140787400       -4.7102951286       -2.4196608642
 H         -7.6175374296       -3.4822039883       -3.3202259363
 O         -9.8571600903       -0.5351631509       -2.9664543545
 H         -9.6420083733        0.1286827597       -3.6475749487
 H         -9.3896113632       -0.2462656590       -2.1495645836
 O         -9.8953555129       -3.3120202487       -1.3941100923
 H        -10.2696038178       -2.8018399457       -0.6636984310
 H         -9.8066978572       -2.6958543449       -2.1261557270
 O         -8.9589573029        1.1920929872       -4.8816201526
 H         -8.2403269041        0.6400653635       -5.2341117144
 H         -8.5544707391        2.0367317847       -4.6642724122
 O         -7.3685774917        1.5583007812        5.5097156061
 H         -8.1805007049        1.2890245271        5.0699533320
 H         -7.0862889697        2.3836679494        5.1051929170
 O          3.4502352043       -1.0425950258       -6.5378311262
 H          2.5970484942       -1.1647280644       -6.0716009983
 H          3.2355529833       -0.4707126791       -7.2755470431
 O         -6.3266838479       -5.3197617557        2.5896268449
 H         -6.2969571594       -4.5837285094        3.2253169907
 H         -7.2459188372       -5.4693123433        2.3581978830
 O        -12.0307716831       -0.1773682141       -1.2010390119
 H        -11.3961899897       -0.2660992917       -1.9311349422
 H        -12.1999358891       -1.0703971373       -0.8947348494
 O          7.5325888435       -5.5186601501        0.0055238176
 H          8.3995017686       -5.3975816264        0.4017128337
 H          6.9941775427       -4.7524879927        0.2678000603
 O          4.3799188773        6.3353359675        0.9177373862
 H          5.0769032390        5.9212183857        0.3627654911
 H          4.8012242897        7.0588533552        1.3784897328
 O          6.0758191812        0.2658217040       -6.2730546294
 H          6.5773982451       -0.2668977360       -5.6298813031
 H          5.2308793970       -0.1844068720       -6.3923067145
 O         -2.5837055953       -1.6550954832       -6.4229936727
 H         -3.3497889000       -1.8487570845       -5.8527345013
 H         -2.3797998231       -0.7201113542       -6.2721659961
 O         -4.2132608733       -6.1895689747       -1.0097257014
 H         -4.1031831382       -6.6600404833       -0.1789475718
 H         -3.3134216986       -5.9840079015       -1.3113623681
 O          7.3949461655       -4.9350621607       -2.6920297458
 H          7.5389848077       -5.3666313835       -1.8344825430
 H          6.7797366235       -4.1989005852       -2.5095043786
 O          2.5883601508        4.7636932963       -5.0190974937
 H          3.4839666280        4.4603436502       -5.1805225446
 H          2.6399037381        5.4772925878       -4.3743522486
 O         11.8623496835        1.5819385986        2.1870149615
 H         11.4374955311        2.4440252286        2.0905511088
 H         11.4692829808        1.1843819812        2.9677361006
 O         -8.3589539558       -4.9164475458        0.3127363193
 H         -7.4455273410       -4.8036190115       -0.0144522473
 H         -8.9464926705       -4.5503886305       -0.3654584690
 O         11.2455001661       -2.6718552939       -0.7391415613
 H         11.3633438444       -1.7800638813       -0.3900661488
 H         11.1133616200       -3.2472011524        0.0171031967
 O        -10.4505765726        2.8302390612       -2.7315645280
 H         -9.5243617111        2.9617475293       -2.9925971102
 H        -10.7895810686        2.1010790890       -3.2534742252
 O          5.1809278519       -5.5857937639       -4.2318461106
 H          6.0399156842       -5.5179032299       -3.7838060928
 H          4.9762852675       -4.7110453180       -4.5873103302
 O         -7.5020440822        5.3762995827        2.6086664124
 H         -7.8140799578        4.5133774497        2.8984367677
 H         -7.8061896143        5.4993656308        1.7073619528
