  211

 H          0.0000000000        0.0000000000        0.0000000000
 O         -0.3819619104       -0.8554931233        0.3854592056
 H          0.3264114112       -1.3218010939        0.9555551892
 H         -1.0998037888       -0.6246599454        1.1368442714
 O         -1.7338676700       -0.4725721126        2.3974879063
 H         -1.5831505146        0.4677777243        2.6514205467
 H         -2.6874586851       -0.6447139032        2.4117554817
 O          1.1109652955       -2.1887621889        1.9139650781
 H          0.4907576078       -2.4350039167        2.6367061678
 H          2.0234204575       -2.0822071752        2.2965109950
 O         -1.6185761859       -0.0497383091       -2.0824164133
 H         -0.8738380184       -0.6680523345       -2.0268616045
 H         -2.3347593048       -0.5558049721       -2.5167944360
 O         -2.1177957414        1.5453762114        0.1307367167
 H         -2.0250777027        0.8142299992       -0.5050018168
 H         -2.6218627333        2.2301525679       -0.3345677217
 O          0.6525558502        1.2069781164       -0.7591606140
 H          1.5978368940        1.3836166011       -0.5921407070
 H          0.5188159752        1.3193686609       -1.7252707242
 O         -1.8260443567       -3.3176314724       -0.5754831552
 H         -0.9445271671       -3.5624660556       -0.2085627749
 H         -1.9293838934       -2.3493249251       -0.5595050746
 O          0.4654175964       -4.2279315950        0.4092174522
 H          0.3014717609       -4.9020333025        1.0960620162
 H          0.8903292158       -3.4868911815        0.8944469330
 O          1.4165398064        0.6119021495        1.8171735746
 H          1.2030823477        0.1725740634        2.6664555470
 H          1.5787841553        1.5325979999        2.0444184012
 O          0.0141547407        3.1598926150        0.8996120828
 H         -0.7808069294        3.6438670321        0.5860397020
 H          0.1517280161        2.4275674727        0.2609522880
 O         -3.1477133431       -1.0267858970       -0.1080053524
 H         -3.5757493813       -1.3577383129        0.6856086243
 H         -3.8283020433       -0.5015755181       -0.5635370052
 O         -1.6409120716       -1.0078165006        5.1736536096
 H         -1.7548232351       -1.0676463997        6.1215863826
 H         -2.3562689952       -0.4085264964        4.8442980459
 O         -4.1576406017        1.1930693034        1.7795778971
 H         -3.3573118008        1.1921237540        1.1920887839
 H         -4.8924752174        0.9371735316        1.2184617263
 O         -5.1660861213        0.6416741693       -0.9235219270
 H         -5.4320593215        0.4532976379       -1.8451360344
 H         -4.8250163691        1.5487865349       -0.9717133789
 O          0.3595731091       -1.8757173859       -2.2472204725
 H          0.6301778317       -2.8159501783       -2.1528336386
 H          0.4095135375       -1.7164570250       -3.2117378806
 O          0.8589658918        1.5253612652       -3.3572746215
 H          1.3471926255        2.3494325991       -3.5745629203
 H          1.5527024925        0.8321458419       -3.3206600991
 O          3.9564048858        0.0889484797        1.1027400226
 H          3.1208659694        0.4615449100        1.4378849262
 H          4.6653567083        0.7342698004        1.2748420827
 O          2.8977039605       -0.1325971395       -2.9706532387
 H          3.0155977666       -0.8631417674       -3.5884896607
 H          2.8970249029       -0.5210200496       -2.0724753406
 O          2.3148952134       -1.2493149859       -0.5918127975
 H          2.1096513076       -0.6526032451        0.1337848165
 H          1.4961286715       -1.4408206861       -1.0980582869
 O          3.0851608044        2.1958144212       -0.4357802643
 H          3.4301399975        2.7130819049        0.3176439133
 H          3.8836567140        1.9022316242       -0.9261375866
 O          0.3437899842       -1.7657447700       -4.9044813751
 H          0.1130148223       -0.8749015311       -5.2628425092
 H         -0.4232049959       -2.3436244275       -5.0593363635
 O          3.5407813514       -1.8921652024        2.7946829709
 H          3.8838578346       -1.2731348157        2.1174591483
 H          3.6075479727       -1.4021980820        3.6227360752
 O          1.6927910512        4.2933682068       -1.3009013673
 H          2.1973881878        3.4954224124       -1.0132883183
 H          1.9399979026        4.9970384897       -0.6994938037
 O         -1.1869436637        2.0455381951        2.9323365194
 H         -0.6898571647        2.3615550391        2.1410310236
 H         -1.9890509194        2.5988164993        2.9492110757
 O          2.7562355406        2.5131414305        3.2317743300
 H          2.0136573319        2.5500908404        3.8752104571
 H          3.2361728573        3.3401785064        3.2890068280
 O         -3.2766917519        3.6770701782        2.2912603168
 H         -3.0268222013        3.9702162248        1.4021378362
 H         -3.8654276794        2.9112167655        2.1703002049
 O          0.6227114896        2.2241967038        4.8407009183
 H          0.8394793221        1.2812983905        4.9465334780
 H         -0.0950412708        2.2073801784        4.1592742481
 O          0.8821284734       -0.3855055087        4.2831471379
 H          1.3480598002       -1.2101757076        4.5248310287
 H         -0.0571999825       -0.5584361092        4.4707880048
 O         -3.3597304196       -1.5144098275       -3.4890118187
 H         -2.8564121515       -2.1378123305       -4.0450967430
 H         -3.8198960628       -2.0990765164       -2.8265091294
 O         -0.8316391926        4.4625637427       -2.3458452936
 H         -1.1835396915        3.6030375370       -2.6560390975
 H          0.0567401290        4.3018485547       -1.9811350914
 O          3.4066629690       -3.5458262065        0.4516701168
 H          3.0403559947       -2.7074169389        0.1102800155
 H          3.8725149072       -3.9452065769       -0.2854388551
 O         -2.0879174468        2.2800717489       -3.1874274397
 H         -1.7638122188        1.4688338972       -2.7329170957
 H         -2.4524590382        1.9345995405       -4.0286902725
 O         -2.0210709882        4.6725791604        0.0247032944
 H         -1.6244543291        5.4586486674        0.4457926466
 H         -1.7106061569        4.6880771745       -0.9071199193
 O         -3.8708726674        3.0212717610       -1.3688641938
 H         -3.9898197918        3.9699012432       -1.3303751505
 H         -3.3154639088        2.8200867931       -2.1577496787
 O         -1.1928670528       -4.7063211430       -2.7788665761
 H         -0.2249910592       -4.6938005117       -2.7076835416
 H         -1.5223548963       -4.1522577083       -2.0361353969
 O         -0.7930183978       -3.0682265672        3.5541025583
 H         -1.5413313802       -3.2606145174        2.9415877268
 H         -1.1295506193       -2.3779895445        4.1481209224
 O         -0.1443905427        0.7148786574       -5.6776754271
 H          0.6770541904        0.8301633166       -6.1771199889
 H          0.0669500465        1.0961563197       -4.7939841150
 O         -1.8689194729       -3.2997744591       -4.8665100160
 H         -1.6351586354       -3.8947224329       -4.1014027231
 H         -2.3540630061       -3.8377405593       -5.4897107585
 O          1.4228963626       -4.2937608675       -2.0541707788
 H          1.2644353744       -4.4252038017       -1.0973215278
 H          2.3425041917       -3.9832447181       -2.1484086032
 O          3.8609654676       -3.1060497437       -2.3708979861
 H          4.3448520467       -2.3732816117       -1.9323045191
 H          3.8091108333       -2.8731094768       -3.3036434700
 O         -3.5585525030        0.6626564127        4.4484970428
 H         -3.8614518409        0.8700390653        3.5496043813
 H         -3.2408967588        1.4970507032        4.8291960673
 O          2.9654969550       -2.1039305442       -4.9336703482
 H          1.9807573835       -2.0950406895       -4.9653382432
 H          3.2547712422       -2.7349209635       -5.5915022984
 O          0.3114764078       -5.4932081194        2.7782533478
 H          1.2681208720       -5.4162680965        2.9181902155
 H         -0.0822641130       -4.7313412430        3.2314304198
 O          5.4420933473        1.5869107612       -1.6028934577
 H          5.2926166238        1.6935521940       -2.5630840500
 H          5.5031825906        0.6164210953       -1.4660788784
 O         -2.7863701817       -3.7222490506        1.9267699304
 H         -2.7430017384       -4.7100856002        2.0087068883
 H         -2.5474370742       -3.5602892576        0.9923323152
 O          2.8779985404       -4.5733853987        2.9355896710
 H          3.0309404100       -4.1511778128        2.0665296821
 H          3.7453359135       -4.8074252624        3.2646947343
 O          1.6782502952        5.0435157806        1.6542792287
 H          1.5588062255        5.0541044058        2.6325972981
 H          1.1413053961        4.2690814978        1.3558786116
 O          1.0078992501        4.9015026955        4.2090976638
 H          0.9649923474        4.0850989114        4.7205617212
 H          0.0782147803        5.1716929981        4.0894500865
 O          5.1077318884       -1.0446449853       -1.0743595936
 H          5.7018693543       -1.5629897556       -0.4836029357
 H          4.4452256633       -0.7141253927       -0.4386574784
 O          2.3075132700        3.7336556195       -3.8614887256
 H          2.1904221694        4.1447426085       -2.9862872392
 H          1.6472304596        4.1541217053       -4.4473278611
 O          5.8764597880        1.9836509783        1.2351903058
 H          6.1265205768        1.9673295131        0.3040505171
 H          5.4247755909        2.8256796385        1.3906562206
 O          4.3347448298        1.8908190300       -4.0421915449
 H          3.7260428670        2.6459149225       -4.0563828990
 H          3.8191638614        1.1453266008       -3.6797480544
 O          3.9866805822        0.3489359051        4.3515486976
 H          3.5744649608        1.1121962172        3.8992771358
 H          3.9372884662        0.5125096296        5.2921077680
 O          1.7983082229       -2.8603305357        4.8472595871
 H          2.2807284277       -3.3803995363        4.1778396242
 H          1.0130994839       -3.3641485937        5.0688826072
 O         -4.3023063215       -1.6372552280        2.4498745564
 H         -3.8725430631       -2.5204829846        2.4125745986
 H         -4.5859519948       -1.4845730408        3.3525429176
 O         -4.4384930316       -3.1445214621       -1.7568027833
 H         -5.0871133029       -2.7795809811       -1.1255208428
 H         -3.7049963118       -3.4792009800       -1.2299256805
 O         -5.9687064515       -1.8872654351        0.1426435879
 H         -5.6236953368       -1.8251990732        1.0433603600
 H         -6.0456019980       -0.9873047044       -0.1940117852
 O          4.1366988135        4.1248509766        1.1395060630
 H          4.4425395749        4.5297739320        0.3158906796
 H          3.3047180616        4.5834692167        1.3827323558
 O          2.5892822189        0.6151932248       -5.9796142546
 H          3.3078244803        1.1934789422       -5.6973585846
 H          2.8798923008       -0.2848464488       -5.7916442753
 O         -2.8811179452        0.7835436511       -5.2276002657
 H         -2.0183438180        0.7135461638       -5.6610799391
 H         -3.0215912701       -0.0520876327       -4.7622287669
 O          0.0391341843        4.6043334657       -4.9495408011
 H         -0.5344222283        4.0201659917       -5.4476072242
 H         -0.4046005630        4.7805398139       -4.1004935412
 O          4.6668973538        4.3692152530       -1.5549880366
 H          5.1727229247        3.5502795384       -1.6228810417
 H          4.5049503242        4.6616026966       -2.4527964842
 O         -0.4762967278        6.5502961763        1.1399483012
 H          0.3687473960        6.0914020819        1.3554386474
 H         -0.2660325171        7.2085190372        0.4797250305
 O         -1.5817613112        5.4012650891        3.5635301526
 H         -2.2746546553        4.8332927001        3.1911714877
 H         -1.3953196208        6.0556094959        2.8814150530
 O         -2.2461702826        2.9434648143        5.4056344366
 H         -1.3314554753        2.7720078877        5.6519287936
 H         -2.2870023534        3.8590399223        5.1172151453
 O         -2.2198243095       -6.2517616383        1.8738066068
 H         -2.0116847119       -6.4302583148        0.9418139774
 H         -1.3724536405       -6.2934265473        2.3346709810
 O          6.0394269059       -2.3895146457        0.9831495647
 H          5.2046925604       -2.8115001816        1.2237055977
 H          6.2254962935       -1.7401077453        1.6858646804
 O         -1.1576418653       -6.5345366008       -0.6493964432
 H         -0.2368587153       -6.7920891610       -0.7027442489
 H         -1.3779289962       -6.1002929166       -1.4858551054
 O         -5.4386049504        0.2924889473       -3.5715117819
 H         -5.1501576576        0.9280552715       -4.2294561409
 H         -4.8533074900       -0.4754573172       -3.6636031709
 O          6.2674519219       -0.3645857486        2.8369726424
 H          5.5524730768       -0.1791090072        3.4624212014
 H          6.4480636084        0.4644260366        2.3815745635
