  451

 H          0.0000000000       -0.0000000000        0.0000000000
 O         -0.1501505187       -0.4551343363       -0.8879448201
 H         -0.7962734061       -1.3012572170       -0.7430900302
 H          0.7344116660       -0.7237573176       -1.3119629233
 O         -1.9052184746       -1.6684163335        2.0892774074
 H         -2.8068178302       -1.3170822732        2.2259577823
 H         -1.9898932832       -2.6050558349        2.3808777059
 O         -1.7456255176       -2.2505585687       -0.4551476520
 H         -1.8661078026       -2.0781679865        0.5072743079
 H         -2.5367390690       -1.9076480529       -0.9227197956
 O         -3.5974294391       -0.9650541988       -1.7464525350
 H         -3.3428912883       -0.0093580279       -1.7513977388
 H         -4.5603889639       -0.9883015458       -1.5886873123
 O         -4.4239109867        0.4448296566        0.4548566201
 H         -5.0137610076        0.5184108998        1.2230568420
 H         -3.5871744663        0.9167624151        0.6405849495
 O          0.7376738036       -1.2933290607        3.0007935536
 H          0.5282897205       -1.7769249646        2.1803516434
 H          1.5882297183       -1.6617249119        3.2997169862
 O         -2.2479818885        1.7966352244        1.1085826707
 H         -1.3617301935        1.3974243894        1.1413236908
 H         -2.1594821622        2.6321680433        0.5980500036
 O          0.0571124691        2.6890167702       -0.9988958410
 H         -0.0445196749        1.9341304727       -1.5939715797
 H         -0.1063196373        3.4888490785       -1.5127486028
 O         -0.2298673338        0.8214339009       -3.0494311025
 H         -0.5011538470       -0.0957531570       -3.2456624961
 H          0.6403406616        0.8917292108       -3.4900766087
 O          2.5914587905       -0.6678537522        0.6518537443
 H          2.7518618328       -0.4864734532        1.5897075518
 H          2.0327854925       -1.4677526359        0.6083483324
 O         -0.5457814595       -1.7389101331       -3.6886873397
 H         -0.1180640917       -2.0475428823       -4.5078390607
 H         -1.5075621798       -1.8613316843       -3.8121121822
 O          2.0522710982       -0.9627693439       -2.0583026909
 H          2.4234063034       -0.0539497956       -2.0099804687
 H          2.7305628265       -1.5258951522       -1.6359127718
 O          0.2235374972        0.7099553136        1.3345342615
 H          0.4018457453        0.0694913914        2.0480758679
 H          1.0492571815        1.2274015385        1.1919309208
 O          2.9682791114        1.4672704707       -1.7379781786
 H          3.8796714752        1.7131772386       -1.9842403781
 H          2.4092299767        2.1281742161       -2.1835458829
 O          0.3084232068       -3.3764667177       -1.8148300493
 H          0.1229852285       -2.6882796726       -2.4886691602
 H         -0.4642803205       -3.9607000076       -1.8575510055
 O         -2.8414077988        1.5379326288       -1.9432688092
 H         -3.2731328065        2.0376472175       -2.6575784495
 H         -1.9479242261        1.3504821459       -2.2506186780
 O         -0.0949984491        2.0705363055        3.7969806130
 H          0.8387005146        2.0603577609        4.0329242451
 H         -0.1290043577        2.4344350415        2.8809546265
 O         -5.8789804864        2.1265784489       -0.9816812382
 H         -5.4365550332        2.9677283588       -1.2222569368
 H         -5.2080487358        1.4998262677       -0.6389696801
 O         -0.0142799096        3.3705666509        1.5692967301
 H          0.0341456531        3.1246743771        0.6236097657
 H          0.7954677122        3.8513745501        1.8196539380
 O         -4.0451860603        2.7472966507       -4.1389988728
 H         -4.9422362710        3.1583050517       -4.1170279630
 H         -3.4944415941        3.4505717451       -4.5331725722
 O         -3.7351536241        1.7971997730        3.2633726069
 H         -3.1045156843        1.7925802589        2.5077209358
 H         -3.2370507381        2.0921462040        4.0507600399
 O          2.4857094015        2.0419513317        0.8408618233
 H          2.6420228263        1.5305135761        0.0212664871
 H          2.3534430486        2.9535185429        0.4956397104
 O          2.2888107359        4.3057147809       -0.4543446195
 H          1.5774836092        4.9054262914       -0.1324849480
 H          2.0248323609        4.0261534812       -1.3540416810
 O         -1.6409140871       -4.9976597736       -2.6258166638
 H         -1.4407681476       -5.9032489283       -2.3214961172
 H         -2.5846368286       -4.9701369368       -2.8615516529
 O          0.8020396241       -2.6205492904        0.6601294667
 H          0.5554262555       -2.8837890737       -0.2508898423
 H          0.7420993084       -3.4378800030        1.1872830510
 O          2.4829471927       -3.1281873065        3.8698251390
 H          3.4155368445       -3.1041591267        4.1648997957
 H          1.9827230850       -3.1212060073        4.7041553024
 O          3.4021531725       -0.3053378934        3.2918114469
 H          2.9834286629        0.5586929449        3.4847835679
 H          4.3746355164       -0.1159991036        3.3430209995
 O          4.1721730532       -0.4981613413       -3.9136519626
 H          4.9118651964       -0.2684429234       -3.3020792156
 H          4.2858700133       -1.4308231979       -4.1659013861
 O         -0.6698025656        3.1278686620       -4.0883154447
 H         -0.5569125551        3.1160245585       -5.0534350625
 H         -0.7454966024        2.1856777457       -3.8322769743
 O          1.9649780024        0.8949311160       -4.5089041499
 H          2.6626335241        0.2929249037       -4.1913422670
 H          2.4009683818        1.7584371829       -4.6347275736
 O         -2.3961439008        0.6930575857       -4.9493867798
 H         -2.9833223012        1.4606273020       -4.9059258243
 H         -2.1288935192        0.6021216480       -5.8835208152
 O          1.9569946819        4.4126734438        3.0087606910
 H          1.3328343742        4.8613761654        3.6110302623
 H          2.2817977288        3.6370022996        3.4937477777
 O          5.1349676308       -0.2832358940        0.1327129309
 H          4.1725139801       -0.4820834816        0.2047776214
 H          5.6043061887       -1.0841662307        0.4161313687
 O          5.0559292585        2.0164991987        1.3994770380
 H          5.2456728028        1.1787090287        0.9128729673
 H          4.0737274940        2.1012233791        1.3369457860
 O          3.0150037724       -4.5095127374        0.8559802526
 H          2.9773031521       -5.0634897074        1.6586837594
 H          2.2549156186       -4.7891752196        0.3065278893
 O          2.6180711186        2.0152380067        4.3159047341
 H          3.5501179005        2.2899042977        4.5137911350
 H          2.2925630833        1.6995409971        5.1840279983
 O          4.0476443664       -2.5562207476       -1.2142911786
 H          4.1925827074       -2.6596055876       -0.2667483259
 H          3.5714353094       -3.3633045503       -1.5363816296
 O          0.5770409260       -4.5566570529        2.4491682765
 H         -0.0904615732       -4.1456014483        3.0342055146
 H          1.4217566307       -4.3452827275        2.8817974100
 O         -1.6022656282       -4.9973205220        0.2679227317
 H         -1.8929903031       -5.9365553416        0.3026913513
 H         -2.1561607311       -4.5194884918       -0.3695152314
 O          2.8452767110        5.8869306228       -3.8940679163
 H          2.7395540024        5.9363907559       -4.8476511057
 H          3.8009517339        5.7145865229       -3.7101161965
 O         -2.1970948509        2.8931444347        5.1835848530
 H         -1.3455621125        2.7409962326        4.7270570626
 H         -2.0605126918        2.5523210491        6.0838341352
 O         -1.5125509370       -0.1024441025        4.2557336778
 H         -1.5290033179       -0.6847629653        3.4703346161
 H         -0.9844979526        0.6826979225        4.0077635057
 O          3.0305772452       -6.0478943250        3.0353384409
 H          4.0006668080       -5.9792159008        3.1862774649
 H          2.5611186328       -5.9521287838        3.8726539633
 O         -0.4613096240       -0.6690768933        6.5548893335
 H         -1.1501518558       -1.2155987116        7.0016900573
 H         -0.8112353969       -0.5314656705        5.6342499106
 O         -3.1547693308       -1.6633577252       -4.1786045523
 H         -2.9976485822       -0.7343109780       -4.5025553727
 H         -3.3935265677       -1.5148509293       -3.2252300759
 O          6.1805530197       -0.0690168146       -2.2465533166
 H          6.5798720517       -0.9395628711       -2.3920176152
 H          5.7218031952       -0.1254825539       -1.3736398955
 O         -6.2125939363       -1.0038416342       -1.8393948812
 H         -6.9100036053       -0.5492072654       -1.3318431628
 H         -6.0910209494       -0.5134179507       -2.6743025941
 O          2.1496050290       -2.6331570735       -4.2123153142
 H          2.0584894406       -1.9025611721       -3.5773581276
 H          2.3710674533       -3.4060327466       -3.6761248164
 O         -3.8615883456       -3.9494822041       -1.0236691546
 H         -4.0765868366       -3.3071466994       -0.3058940161
 H         -4.5493112550       -3.8093509846       -1.6950038956
 O          2.6460456440       -4.4882820828       -2.2039315709
 H          2.7909788871       -5.3712578354       -1.8343656410
 H          1.7265144659       -4.2215230631       -1.9758329000
 O          0.9010067931       -5.6803047827       -0.2684610517
 H          0.0570011730       -5.3042108767        0.0573278932
 H          1.1582329798       -6.4107224494        0.3283875997
 O          5.2346963461        2.5879566884       -2.5807132182
 H          5.8561477546        2.0200662217       -3.0781549179
 H          5.7036502563        2.8661068810       -1.7523679809
 O         -0.1247162558       -5.1020675621       -4.7976568267
 H          0.5668771245       -5.7210880180       -4.5301336408
 H         -0.6549399213       -4.9469869724       -3.9820130591
 O          6.2858855471        3.5438796494       -0.4013857351
 H          5.8597680637        3.0082870311        0.3002931716
 H          5.8480149969        4.4148563640       -0.3692123286
 O          5.8995075054        0.4479150526        3.4423662008
 H          6.6077720946       -0.0744678249        3.0114632512
 H          5.7417697921        1.1790809714        2.8186151727
 O         -5.5418694620        0.3684982246       -4.0726606663
 H         -4.9636827300        1.1432605930       -4.0409790800
 H         -5.4341240253       -0.0019340294       -4.9668322860
 O         -2.4146976885        4.3311537417       -2.5093949469
 H         -1.7918873195        3.9168761655       -3.1419429773
 H         -2.5886162702        5.2232657982       -2.8503819874
 O          1.7997702028        3.5349998541       -3.0418370195
 H          2.1652873815        4.3702611070       -3.3867539140
 H          0.8945441817        3.4658797442       -3.4094206599
 O          4.0598060184        5.9248279258        2.2538726549
 H          3.3063891778        5.3442082766        2.4850166274
 H          3.6506330691        6.7980806207        2.0893287067
 O          5.0648575344        2.6264762445        5.0178736906
 H          5.4771259821        3.2420107827        4.3603938671
 H          5.5563745829        1.8001423624        4.9328498289
 O         -2.0817110474        4.2590528479        0.0807664050
 H         -2.9166526088        4.6717137609        0.3554635391
 H         -2.1125589561        4.2299625768       -0.8984538256
 O          4.4584940455       -2.4660558419        1.7704284932
 H          4.0344647960       -1.8967283891        2.4211487523
 H          3.8562769834       -3.2130339449        1.6258191824
 O          6.3374837930       -2.7947862075       -2.5834755002
 H          5.4908266401       -2.6904076408       -2.0854159082
 H          6.0882887993       -2.7806317394       -3.5187263042
 O          0.0443351441       -2.8016536693       -6.1188168721
 H          0.0828190030       -3.6682122869       -5.6626490158
 H         -0.8611515717       -2.7273747785       -6.4812943662
 O         -0.5560428106       -3.1983452585        4.4138485432
 H         -0.1860532313       -2.3708347603        4.0583767516
 H         -1.4913648389       -3.0200489025        4.6260030322
 O          0.3093850194        5.7973210419        0.4258382725
 H         -0.5331547879        5.3208961541        0.3374625185
 H          0.2918878936        6.2860313983        1.2628351983
 O         -3.6023849044        0.3053801658        6.0047617291
 H         -2.9447314895        0.1331478431        5.3045814033
 H         -3.1221682779        0.7124791305        6.7309499970
 O          1.6986103402        1.0068253026        6.6320667964
 H          2.4903667627        0.4581595319        6.7403909061
 H          0.9567140522        0.3810072128        6.6126638952
 O          5.9394360955        4.1200288507        3.0520266592
 H          5.7822451982        3.4708889284        2.3544910383
 H          5.4044021261        4.8971052162        2.8255501224
 O         -0.1576941182        5.3428673766        4.4877269682
 H         -0.0025970742        4.7811771150        5.2664995698
 H         -0.8785993068        4.9229252984        3.9736550730
 O         -2.0438532098        4.5336697779        2.7713950525
 H         -2.8232819661        3.9925494206        2.9112953996
 H         -1.4287819451        4.0567841207        2.1690767169
 O          0.1099964859        7.3814594302        2.6207121600
 H          0.1274064591        6.8467232537        3.4255844610
 H         -0.8323480574        7.4744011137        2.3617088105
 O          6.6672891320       -3.1379673026        3.1545639215
 H          5.9668773661       -2.8660928941        2.5213435347
 H          7.3798631932       -2.5036225536        3.0516595631
 O         -2.4496644325       -4.1818800416        2.5816542351
 H         -3.4187000709       -4.2017926531        2.4531397429
 H         -2.0683676216       -4.5173942626        1.7338098874
 O         -4.0758121392       -0.8480288435        3.2480383074
 H         -4.0914037952        0.1257933068        3.3431805336
 H         -4.9542934248       -1.1539058853        3.0035226167
 O         -3.1300131889       -2.6444729167        4.9624765570
 H         -3.7293533611       -3.4214513349        4.9656202132
 H         -3.5250002755       -1.9665766352        4.3757358691
 O          6.7418435654       -2.6309012480        0.1590972129
 H          6.3628297703       -3.5241715314        0.2972528132
 H          7.1293487769       -2.6544575075       -0.7198096544
 O          7.7040383446       -0.7139534607        1.8450502932
 H          7.8992849940        0.0170247443        1.2357271446
 H          7.4823779686       -1.4581192611        1.2609125784
 O          7.8278428682        1.1240686500       -0.2314634261
 H          7.4648234467        0.7951184749       -1.0659230635
 H          7.7017749836        2.0770048059       -0.2396037209
 O         -6.4314924311        0.2518134070        2.3453753463
 H         -6.9263497979        1.0258860311        1.9956802524
 H         -6.4836749957        0.2841578825        3.3176853085
 O         -4.5843069561       -2.1947959949        0.7868954611
 H         -5.5530044605       -2.2457929240        0.7965545583
 H         -4.3930272033       -1.2696943220        0.5420142323
 O          4.5454789768        5.6317436098       -0.3807053305
 H          3.7515671644        5.0464870124       -0.4578855774
 H          4.5597711240        5.8654343466        0.5684622510
 O          2.5152383415        7.9146540584        1.4003139635
 H          1.7004676281        7.8499180236        1.9199033866
 H          2.3016120137        7.6419740084        0.5021956941
 O          0.0509456216        5.4511432164       -2.2226990960
 H         -0.7211597871        5.8674027330       -1.8036357046
 H          0.8109755645        5.9613182488       -1.9167477755
 O         -4.4725835811        5.2806520562        0.9052721951
 H         -4.9262257644        4.6968172054        1.5615184720
 H         -4.4170579800        6.1593398645        1.2876280427
 O          3.4930395822       -0.8843363838        5.9687063097
 H          3.3711773981       -0.7041104185        5.0140849683
 H          4.2413058754       -1.5005607291        5.9793037582
 O          0.9588163836       -0.3070235299       -6.6716684970
 H          1.2592073588        0.1518019691       -5.8565699035
 H          0.7294200866       -1.2122931789       -6.4032727717
 O          2.1580822812        4.5619778883       -6.2645890056
 H          2.4590006496        4.3637283190       -7.1529034167
 H          2.6818370679        3.9616046073       -5.6948543433
 O         -4.1017946567       -5.4832588225       -3.6179046013
 H         -4.9546635131       -5.1588049747       -3.3186597127
 H         -3.9737839259       -6.3644359456       -3.1873972607
 O         -2.3671156479        7.0019546892        1.7109356617
 H         -2.2973400153        6.0622609383        1.9804942290
 H         -2.3018255261        7.0093435850        0.7372330919
 O          3.7535764370        2.8897154125       -4.8788639459
 H          4.1854476303        2.9082958830       -4.0110379888
 H          4.2764579350        2.2994441480       -5.4393676188
 O         -1.8599831154       -7.5916773409        0.7039151279
 H         -1.2266212606       -7.5435145300        1.4521981408
 H         -2.7296539203       -7.6266425507        1.1409055905
 O          2.3766115480        7.0724167253       -1.5248222473
 H          3.2179988248        6.7866631626       -1.1337650040
 H          2.4854336132        6.9141523463       -2.4773619390
 O         -5.1158894336       -4.4961007572        2.3390820392
 H         -5.5224275360       -3.7128720694        2.7407856969
 H         -5.5753953087       -4.6031284133        1.4875218264
 O         -2.5424452076       -2.5273912622       -6.7313057611
 H         -2.7073340292       -3.4908178008       -6.6744720510
 H         -2.7780118404       -2.1921674637       -5.8508778053
 O         -0.2477407438       -7.1002021776        2.7880741897
 H          0.1259514621       -6.2063442263        2.6316981563
 H         -0.8459261119       -6.9865596448        3.5379861824
 O         -4.9391169340        4.5028066961       -1.6257074374
 H         -4.8302852287        4.9275707792       -0.7593276440
 H         -4.0432909106        4.3225056446       -1.9736008613
 O          5.5249306084       -5.0544311479        0.1618467702
 H          4.5750556851       -4.8722731168        0.3233449259
 H          5.5921280010       -5.3203504811       -0.7697732324
 O         -2.7780566283        4.8920070377       -5.3313746702
 H         -1.8461599181        5.1863176823       -5.2670825215
 H         -2.8516993414        4.3955505501       -6.1563482761
 O         -4.3961594788       -6.3048545020        0.0116870283
 H         -5.3489889587       -6.3627313731        0.0871566234
 H         -4.2073710653       -5.4054210978       -0.3556553500
 O         -2.4795237579       -2.1136291439        7.4165757990
 H         -3.1714358210       -1.6069653062        7.8410525470
 H         -2.7996031886       -2.2857484587        6.4902590673
 O         -0.2468305084        5.7664877914       -4.9249780977
 H         -0.1001466300        5.6488024081       -3.9657727314
 H          0.5555797020        5.4799883228       -5.3676847556
 O          1.0900454412       -5.5008174080        5.0677642779
 H          0.5190475380       -4.7185215408        4.9764869935
 H          0.5802434384       -6.1472044651        5.5568701683
 O          0.7384161585        3.6511488300        6.4448240002
 H          1.5840480782        4.1137684332        6.3425617742
 H          0.9863600529        2.7294386611        6.5908901561
 O          3.2055766488        4.6212435867        5.6530180646
 H          3.9369820498        3.9951192988        5.7294654397
 H          3.5708015071        5.4306862010        5.2947737769
 O          1.4502911728       -2.5956247250        6.3861397848
 H          2.2377571773       -2.0146470043        6.3772615334
 H          0.7009450333       -1.9759681451        6.4280656530
 O          5.5034691718       -5.4800707315       -2.5150212253
 H          4.8680355999       -5.5284134046       -3.2396950131
 H          6.0066063731       -4.6616527109       -2.6509561067
 O         -7.4255971085        2.3902541911        1.1657290958
 H         -6.8798929005        2.4000378915        0.3456066184
 H         -7.0355333434        3.0568005357        1.7469526018
 O         -2.0119897016        6.9242076073       -1.0305024672
 H         -2.6016342080        7.1393065366       -1.7623671394
 H         -1.3109313762        7.6105411551       -1.0043671987
 O         -1.9811948692       -5.8169308769        4.6642004790
 H         -2.0364729303       -5.1222279841        3.9706076108
 H         -1.6275893705       -5.3780317655        5.4572691156
 O          1.9670495770       -7.6606486158        1.1918864771
 H          2.4522860889       -7.1824244882        1.8962461467
 H          1.2195933405       -8.0618556592        1.6465945628
 O         -6.0830450168       -3.5544825344       -2.5600379130
 H         -5.9976770646       -3.4432597114       -3.5245648907
 H         -6.2445174106       -2.6425781165       -2.2354585988
 O         -0.6290889274       -7.3407988290       -1.7020007716
 H          0.0747640108       -6.7585065590       -1.3395336743
 H         -1.0520339439       -7.7020445005       -0.9055120190
 O         -3.6171236263        6.5995855054       -3.3765273152
 H         -4.5119599052        6.3148684451       -3.1719859429
 H         -3.4293092821        6.2613701970       -4.2681817733
 O         -2.6050715470        2.7748591601       -7.0629013944
 H         -2.8515922194        2.0249940276       -7.6060525674
 H         -1.6348593837        2.7693206178       -7.0363514555
 O         -7.3200030714       -1.9099570626        0.9617491819
 H         -7.0964137408       -1.2157704077        1.6111990314
 H         -7.8777864674       -1.4590575331        0.3179750714
 O         -3.5475044023       -7.5749969001       -2.1748063893
 H         -2.6196589249       -7.8135680402       -2.1190923073
 H         -3.8212836320       -7.2608873056       -1.2842219090
 O          0.0988927590        2.8146965937       -6.6325818146
 H          0.6847374912        3.5897132488       -6.5966583939
 H          0.6847554133        2.0878584392       -6.8812802320
 O          2.7020373793       -3.5407296627       -6.6428385433
 H          2.4809258620       -3.1188973079       -5.7801800400
 H          1.8536335210       -3.6581092483       -7.0769014434
 O         -5.5208094303        3.7118809292        2.7332003333
 H         -5.3310786991        4.2277422647        3.5374142763
 H         -5.0143856016        2.8837157084        2.8757392844
 O          3.2088990862       -7.0357224222       -1.2907822449
 H          4.1665212081       -7.0895445704       -1.3295099047
 H          2.9112638706       -7.4098184920       -0.4488495414
 O          1.5441496808       -6.9577313993       -3.5273700473
 H          2.1678704356       -7.0914301459       -2.7958259066
 H          0.7403587592       -7.4085757492       -3.2454728636
 O          4.9561461086       -2.9276563370       -4.8909422808
 H          4.4610028668       -3.7478137122       -4.7131098737
 H          5.0065050975       -2.8514849598       -5.8445035664
 O         -4.1890364737        4.7459576070        4.8364511473
 H         -3.8032123974        5.6416667579        4.8165879031
 H         -3.4352100270        4.1663298686        5.0371886124
 O          4.7299844606        0.6709330006       -6.2004604143
 H          4.5030135932        0.2340492920       -5.3405277066
 H          4.4595080377        0.0031427005       -6.8645864219
 O          3.3728838586       -1.0857689538       -7.6380469308
 H          3.3166444641       -2.0304809013       -7.4182505689
 H          2.4882882129       -0.7378436157       -7.4077583291
 O          4.8618903244       -2.9728703371        5.0901363729
 H          5.6586607955       -3.1142278254        4.5472043013
 H          4.6584397703       -3.7808827162        5.5903439220
 O          0.1079018609        8.4990140036       -0.7548746465
 H          0.2679417400        8.6406762414        0.1803166665
 H          0.9084989097        8.0886260812       -1.1160192836
 O          5.6223453407       -5.6749699012        2.8544718988
 H          6.1072990071       -4.8917596299        3.1476501345
 H          5.7278250213       -5.6746674349        1.8912316367
 O         -4.5684839959       -4.8823322791        5.0274311223
 H         -3.7969415652       -5.4605912715        5.1369898822
 H         -4.9116528341       -5.0596653342        4.1398999388
 O         -6.2414708146        0.0160424414        5.0452399639
 H         -5.3248392661       -0.0936062483        5.3464866782
 H         -6.4595820109        0.9133921505        5.3364748790
 O         -0.9073050223       -4.4481235199        6.8619579369
 H         -0.0787578499       -3.9562946560        6.8152915953
 H         -1.5465730621       -3.8393687556        7.2489124058
 O         -1.5464477398        1.6499857482        7.4919520590
 H         -1.0197853899        0.8589302615        7.2590176338
 H         -0.9495044650        2.2784951915        7.9014677827
 O         -6.1617255972       -2.5738495234        4.0382710340
 H         -6.0848519310       -3.1979004315        4.7634957988
 H         -6.4658944709       -1.7410523187        4.4231008723
 O         -2.7100119216       -5.0564379794       -5.9316629877
 H         -1.7889469197       -5.2658252792       -5.7205011394
 H         -3.2197685394       -5.3033614111       -5.1418223049
 O          3.6232385906       -5.3331660267       -4.7433084736
 H          2.9190546094       -5.8542425546       -4.3376811188
 H          3.2875881829       -5.0482300743       -5.6065604698
 O          5.2780120254        5.3114099093       -3.0882980985
 H          5.3285513970        4.3457291076       -2.9842895163
 H          5.2665624966        5.6642795665       -2.1897120827
 O         -5.0402770955       -0.7490064731       -6.4781904874
 H         -4.2354700130       -0.8303663960       -6.9946324194
 H         -5.3115954135       -1.6472455937       -6.2340849712
 O         -1.6452335018        0.0444775337       -7.4576649016
 H         -0.6814826208        0.0279770453       -7.3126755964
 H         -1.9179626472       -0.8780909488       -7.5211925045
 O          2.5608285077        1.9536716762       -7.5340379349
 H          3.3239166513        1.5643950630       -7.0814472005
 H          2.3521252535        1.3522756365       -8.2487477925
 O         -2.6242407803        6.9110463899        4.5634917342
 H         -1.7355621981        6.5778149367        4.7401310698
 H         -2.6457572261        7.1972085384        3.6440673755
 O          6.7230642713        1.5994449974       -4.5571314542
 H          6.2435283741        1.1749374835       -5.2850885812
 H          7.0380093423        2.4431936373       -4.8777790109
 O         -5.1995154524       -3.1430297074       -5.0931500776
 H         -4.8192594051       -3.9332881532       -5.4831832703
 H         -4.4540580488       -2.6408897750       -4.6935757728
 O          3.3371597429       -4.7326232732        6.4207324530
 H          2.9297665711       -4.0662029233        6.9796678074
 H          2.5952271873       -5.1079159778        5.9167770687
 O         -6.6613046135       -4.4768872114        0.0772962919
 H         -7.1464611692       -3.7180769289        0.4296189665
 H         -6.5763289547       -4.3126233947       -0.8709712629
 O         -6.4008169969        3.9082810356       -3.8497005001
 H         -6.1569363319        4.3087154682       -3.0036052878
 H         -7.0625985279        3.2259105190       -3.6437106723
 O         -5.5504979898        2.4977368176        5.7861395392
 H         -4.7410944032        1.9969519637        5.9428974552
 H         -5.2820617189        3.4066487625        5.6096293387
 O         -7.6560308769        1.6443970590       -2.9024299296
 H         -7.0034799900        1.8332447301       -2.1940487647
 H         -7.1665036802        1.1135618893       -3.5500311319
 O         -3.6760271326       -7.1124590562        2.6607908468
 H         -3.1620047481       -6.7928912268        3.4090091894
 H         -4.1892311635       -6.3738849647        2.3142707250
 O         -8.2954315866        0.2193480541       -0.6274815873
 H         -8.2341182950        0.8932587032        0.0592847200
 H         -8.4382485523        0.7056964158       -1.4573693553
