  251

 H          0.4630927074        1.1941025329        0.8323452967
 C          0.5529035758        0.5095402429       -0.0251092079
 H          0.4633421180        1.0989800593       -0.9466436092
 C         -0.5779259333       -0.5149488604        0.0205351863
 H         -0.4518492551       -1.1270258250        0.9278134320
 H         -0.4840892693       -1.1748678657       -0.8448928482
 N         -1.8603253888        0.1647702479       -0.0623309397
 H         -2.6131021663       -0.5138473282       -0.0751527660
 H         -1.9956541842        0.7570092262        0.7508171942
 O          1.7808081032       -0.1833448061        0.0209869104
 H          2.5006908394        0.4507195092       -0.0567171276
 O         -2.0445424819        1.2088670282       -2.4947993319
 H         -2.0231527832        0.8008936697       -1.5874848385
 H         -2.9562832239        1.1170359000       -2.8229284191
 O         -1.4435656439        3.5214027325       -1.2846709678
 H         -0.9684638011        3.9546683199       -2.0006929889
 H         -1.7267697405        2.6702058185       -1.6898758586
 O         -3.0827463030        4.7067094242        0.5911045608
 H         -3.4075975389        3.8844525587        1.0094546439
 H         -2.5159918656        4.3996025240       -0.1357890103
 O          1.1557427479        3.2408579941       -2.4182103820
 H          0.7467184143        2.4360733824       -2.7647862635
 H          1.7614337773        3.5798016618       -3.1297454539
 O          0.9136044703        0.5551160363       -3.2237444731
 H          1.1443867331       -0.3776358448       -3.0896530611
 H          0.1554471342        0.5771012944       -3.8306976234
 O          1.8599779083       -1.8982336005       -2.0649409146
 H          1.8774016001       -1.3430053485       -1.2672178436
 H          2.5986307960       -2.5321128758       -1.9930913968
 O         -1.4227506650        4.8170084162        2.8531975905
 H         -0.9597791786        4.1909841973        2.2441908301
 H         -2.0838064303        5.2280707980        2.2802385379
 O         -2.8746597688        2.9961101079        4.1365395799
 H         -2.3793199148        3.7821877127        3.8062992860
 H         -2.1986478245        2.3469741555        4.3605923922
 O         -3.8029209331        2.3195774888        1.7175779935
 H         -4.7721409480        2.3784239207        1.8647457398
 H         -3.4087589424        2.4885932605        2.5984479613
 O          2.9946202100        2.1744556822       -0.8095619516
 H          2.2846843830        2.5198364255       -1.3972955047
 H          2.8360670400        2.5994092511        0.0590621720
 O          3.9818422220        0.6849164065        1.6735937295
 H          4.2877127732        0.4686213315        2.5864314098
 H          4.0842391946       -0.1331040925        1.1553901584
 O          3.8422379315       -2.3254885510        3.9396180649
 H          3.2378721106       -2.3840739283        3.1774556776
 H          4.5981067133       -2.8854059072        3.7085304157
 O          2.6266491036        3.0205104691        1.7138829284
 H          3.3841794078        3.6427152129        1.8262383970
 H          2.9797173358        2.1377644981        1.9176166386
 O         -4.6774843827       -0.4646404592        0.7780113109
 H         -4.7873468290       -1.4236593424        0.9503260892
 H         -4.0977320287       -0.1293333317        1.4790433254
 O          2.1966989970       -2.2254367268        1.7125548540
 H          1.6926957000       -2.9629960288        1.3097132136
 H          2.1997148138       -1.5104419398        1.0530249697
 O          0.6861407937       -4.0758867200        0.4872427889
 H          1.0352623956       -4.5752158970       -0.2873271280
 H         -0.2394406703       -3.9010254411        0.2775548302
 O          2.7740221773        1.6090421405        5.1983484051
 H          2.0842376766        2.1943131117        4.8525911069
 H          2.3308543196        0.7766113438        5.4625401008
 O         -0.1790578810        3.2712912688        1.0968729385
 H          0.6330477615        3.7524484777        0.8832285511
 H         -0.6995340830        3.2772180280        0.2712998068
 O         -3.6310638638       -1.8717995397       -1.5219858916
 H         -4.1656189595       -2.4696024773       -2.1010996054
 H         -4.2652462027       -1.2540643254       -1.1332691853
 O         -1.7925921287       -3.6827629021       -0.7729590271
 H         -2.4253130406       -2.9552895701       -0.9284260709
 H         -1.1908273191       -3.6698422956       -1.5582953188
 O         -2.9657662381       -4.2665020602        1.6863306203
 H         -2.4894276499       -4.1933052099        0.8483167014
 H         -3.8476573722       -3.8856286725        1.5322325236
 O         -5.3413435556       -3.0215549160        1.1562199383
 H         -5.8990271535       -3.0574667341        0.3447602178
 H         -5.9294519296       -2.8090594599        1.8996951616
 O         -2.7788688910       -0.2395182686        2.7440633303
 H         -2.1545658642        0.4185719993        3.0860106406
 H         -2.3492555906       -1.1139166858        2.8516869262
 O          0.9986806262        3.3089102862        3.8396498465
 H          0.4730723790        4.1132432078        3.8148410302
 H          1.5091643880        3.2772271955        3.0003277443
 O         -0.7279043939        1.2815191085        3.7892141933
 H         -0.1788832057        0.5463154511        3.4517019573
 H         -0.1410267334        2.0674349240        3.7630469391
 O          0.4916291522       -0.9714253616        3.2100610138
 H          1.1731303181       -1.4472000140        2.6721690856
 H         -0.2494381770       -1.5944241837        3.2872602798
 O          4.5107535347       -1.4819769396        0.1941801913
 H          4.8949120743       -1.6039062066       -0.6959882800
 H          4.2536988591       -2.3767789994        0.5111321389
 O         -5.9355607781       -0.2188567048       -1.6203061552
 H         -5.4841406973        0.0070160491       -2.4680562071
 H         -6.7443046146        0.3319457887       -1.5621781903
 O          6.0518816756        2.1463549608        0.9609050701
 H          6.6251140136        1.7706194019        1.6637151332
 H          5.2003696785        1.6616376811        1.0935073482
 O         -4.3005127764        1.9109920041       -0.9033075482
 H         -3.9198247194        1.9575899024       -0.0131592010
 H         -4.7411441965        1.0464397479       -0.9620763407
 O         -7.2402522710        0.0139846868        1.3237247964
 H         -6.3315554018       -0.0989556890        0.9500548635
 H         -7.2383430958       -0.5800619252        2.0969287545
 O          4.7948516316        0.1382670559        4.1160778316
 H          4.1255416572        0.6473879846        4.6070541676
 H          4.4943893384       -0.8015795995        4.1396440802
 O          6.8554207545       -1.4155780873        1.4022227205
 H          5.9679524985       -1.3632668462        0.9684437094
 H          7.5054725773       -1.3324740488        0.6690551703
 O          4.3149968447        0.2273411244       -2.2285916225
 H          5.2275695251        0.4529393245       -1.9729224906
 H          3.7449995828        0.8015821270       -1.6997450617
 O          6.7307627533        1.1592273309       -1.3900603526
 H          6.9267115526        1.8604387053       -2.0145260174
 H          6.5045593631        1.5955699690       -0.5314297326
 O         -6.4541675847        2.5387784108        2.0219913405
 H         -6.8558170082        1.6648431224        1.8650284787
 H         -6.5929423632        3.0430255888        1.1926623286
 O          1.8143723636       -0.9105110636        5.4990884622
 H          2.5321986260       -1.5418353361        5.3804935847
 H          1.3150439136       -0.9535827535        4.6483917559
 O         -6.4795898857        3.4389146553       -0.5122071091
 H         -6.1740260209        4.3557916199       -0.7008568379
 H         -5.6835637073        2.8940786800       -0.7030552769
 O         -5.4703700098        2.0650393737        4.6268448396
 H         -4.6148504855        2.5194986998        4.6238300224
 H         -5.9422675120        2.3740110944        3.8412933094
 O         -4.8283749014       -0.5077999008        4.4360039530
 H         -5.1431457649        0.4020841058        4.6423956552
 H         -4.1054557308       -0.3749856377        3.7845600913
 O         -1.6541323302       -2.6376473842        3.2916870289
 H         -2.1139617993       -2.5765219520        4.1726497680
 H         -2.1372991971       -3.3106244991        2.7551780987
 O         -6.7210280310       -1.8331696172        3.2247288211
 H         -7.2852436279       -2.2181835465        3.8933838827
 H         -5.9925400501       -1.3542831714        3.7138238640
 O          7.2010909846        0.7258270791        2.9095369929
 H          6.4836982290        0.6215029992        3.5533342354
 H          7.1447927878       -0.1103134772        2.3885913252
 O          6.1586277263       -3.4883449703        2.8982773213
 H          6.9107305922       -3.8981611548        3.3200792479
 H          6.5037688347       -2.7181979932        2.3924602622
 O          4.2708722076       -4.0396778411        0.9628909754
 H          5.0294626683       -4.0764571411        1.5612596699
 H          3.5321167737       -4.4478385063        1.4740651451
 O         -0.1985972730       -3.3326632415       -2.8646290021
 H          0.5687573665       -2.8098993917       -2.5299508542
 H         -0.7784087616       -2.6654745323       -3.2791418795
 O          4.8889004251        4.3691217461        1.9596202351
 H          5.4441968420        3.6905054377        1.5240532382
 H          4.9882049011        4.2024157677        2.9126343184
 O          3.7948952845       -3.7817653758       -1.7174315321
 H          4.0117742129       -4.0082956475       -0.7957448610
 H          4.5969089176       -3.4205085395       -2.1149809471
 O          1.4853344015       -5.2966647116       -1.7416704789
 H          2.3569765417       -4.9102224140       -1.9145795914
 H          0.8746539850       -4.8986870511       -2.3730195096
 O         -1.8408226813       -1.3056281353       -3.4514490529
 H         -1.6680458931       -0.3504049414       -3.3477969346
 H         -2.4796851691       -1.4963422246       -2.7357267191
 O          4.9054791502        3.5838790941       -2.0949095213
 H          4.8365371624        4.4244175762       -1.5925571312
 H          4.3218730377        2.9766383253       -1.5958831421
 O          3.0387948726        3.8713030781       -4.1000691403
 H          3.7644440975        3.9882604615       -3.4599620982
 H          3.1167035538        2.9445739585       -4.4143184128
 O          4.1869803435        5.5555062689       -0.4677724397
 H          4.5238067424        5.3780246067        0.4200319840
 H          3.2261633467        5.4187491165       -0.4112483630
 O          4.0116507230       -1.8683167378       -4.0164478470
 H          3.9723498130       -1.2381953527       -3.2789993041
 H          4.7857846264       -1.6169717859       -4.5254926257
 O          1.4556422284        4.9981612488       -0.3688693060
 H          0.9089814396        5.7782551862       -0.4621939747
 H          1.2697748101        4.4269682814       -1.1366243494
 O          4.9874352717        3.1870546749        4.3952001189
 H          5.6974649190        2.5613550416        4.5468993153
 H          4.1880988617        2.7913623007        4.7699284638
 O         -8.0503805059        1.3473192369       -1.0821074117
 H         -8.1009205073        1.0439591801       -0.1677523378
 H         -7.6485395181        2.2344766962       -1.0178942745
 O          8.4192511974       -0.8179094124       -0.6590159946
 H          9.0649957491       -0.3289659444       -0.1276565759
 H          7.8388311592       -0.1213732557       -1.0292200320
 O          3.1572923095        1.2343677690       -4.4919887509
 H          3.7981381296        0.8440155441       -3.8715737597
 H          2.2941407584        1.0119101518       -4.0716932962
 O          9.4268193878        1.0235858490        1.1610150996
 H          8.8443554023        0.9534104178        1.9293208741
 H          9.6007544220        1.9565992347        1.0340523672
 O         -4.4700075874        0.5287899560       -3.6550841772
 H         -4.9955435547        1.2467968522       -4.0617474288
 H         -4.3958746523       -0.2089038124       -4.2981912249
 O         -3.8894944895        3.8146627618       -2.9176511206
 H         -3.8949496760        3.1308851141       -2.2258703470
 H         -3.0162670133        3.7613099081       -3.3434829128
 O         -1.3854305484        3.5449457249       -4.0960721378
 H         -1.3210238982        2.6004345592       -4.3312862880
 H         -1.1381890312        4.0325659258       -4.8803871010
 O         -5.0446300030        5.5691731584       -1.0964738602
 H         -4.6417988741        5.1799649803       -1.8885306454
 H         -4.3795233528        5.4456749739       -0.3923164366
 O         -6.7693251646       -2.7072607435       -1.0802065256
 H         -6.4412625279       -1.8057960808       -1.3017130491
 H         -7.6933740941       -2.5537397846       -0.8103700616
 O          2.3228691853       -5.1218183303        2.4325806089
 H          1.9673449548       -4.6273051904        3.1868849422
 H          1.6091294453       -5.1129191508        1.7795938905
 O         -2.7840011587       -2.0792292406        5.5636683365
 H         -2.1468294323       -1.4132622699        5.8944625455
 H         -3.6032454092       -1.5933400270        5.3835785114
 O         -0.9045561685       -0.2044553300        6.1088151526
 H          0.0048869857       -0.5083113318        6.2079767654
 H         -0.8943939956        0.4185651745        5.3619792335
 O         -9.0004682669       -1.5041299649       -0.1884057750
 H         -8.4500031864       -0.9718165871        0.4160335786
 H         -9.3477398946       -0.8899099050       -0.8386082024
 O          0.7734126015       -3.6669233494        4.2283695747
 H         -0.1098933899       -3.5201315103        3.8517183360
 H          0.6875674945       -3.5720420535        5.1764827881
 O         -0.9789567882        1.0331783788       -5.1653050447
 H         -0.2048116029        0.8576504384       -5.7591377430
 H         -1.6973128272        0.4824373433       -5.4798689168
 O         -5.0331778142       -3.5354712728       -3.0221623818
 H         -4.6238231523       -4.3481053136       -2.6642098961
 H         -5.8659580235       -3.4310355009       -2.5346114948
 O          1.2281932057        0.3387496859       -6.3974206577
 H          1.2624300619       -0.5535731909       -6.0028058317
 H          2.0066756706        0.7867764500       -6.0446231495
 O          1.4461163050       -1.8675871254       -4.8902892232
 H          2.3767667619       -1.9274294541       -4.5959469813
 H          1.0337371151       -2.7047324941       -4.6711649919
 O          6.1336111959       -2.1384887837       -1.8820088518
 H          7.0125433099       -2.0867339127       -1.4945514046
 H          6.1711599387       -1.5927256800       -2.6877654398
 O          6.5456090577       -0.5325114616       -4.0935583036
 H          7.4763221551       -0.5832754725       -4.3092091758
 H          6.3281367785        0.4208876325       -4.0470993343
 O          5.9951077155        2.1352158478       -4.1144310641
 H          5.6423360429        2.7094502105       -3.4081324849
 H          5.3740134226        2.2099584782       -4.8424953763
 O         -4.0260616184       -1.7149291321       -5.0255808726
 H         -3.1195987320       -1.7263950898       -4.6688478867
 H         -4.4921420963       -2.4228820504       -4.5613760596
 O         -3.7982893237       -5.3985709781       -1.5047779485
 H         -2.9747201621       -4.9309202521       -1.2681125644
 H         -4.2131853990       -5.6482472127       -0.6777518685
 O         -5.9156124323        2.6867608242       -4.2543392195
 H         -6.6949120291        2.8054052041       -3.7089418351
 H         -5.2162069878        3.2520733652       -3.8598658632
