  221

 H          0.4630927076        1.1941025328        0.8323452958
 C          0.5529035761        0.5095402430       -0.0251092078
 H          0.4633421182        1.0989800596       -0.9466436098
 C         -0.5779259333       -0.5149488604        0.0205351876
 H         -0.4518492549       -1.1270258236        0.9278134321
 H         -0.4840892692       -1.1748678656       -0.8448928486
 N         -1.8603253886        0.1647702475       -0.0623309409
 H         -2.6131021662       -0.5138473280       -0.0751527665
 H         -1.9956541840        0.7570092262        0.7508171931
 O          1.7808081027       -0.1833448059        0.0209869107
 H          2.5006908393        0.4507195084       -0.0567171281
 O         -1.8792482435        1.4759018568       -2.3563267680
 H         -1.9057338829        1.0672789548       -1.4433467361
 H         -0.9794883940        1.3223640603       -2.6894023013
 O          4.1931631983       -1.3451351673        0.2227847666
 H          4.0427715839       -0.7921032745        1.0093241558
 H          4.7488593866       -2.0963828579        0.5272035698
 O          3.1215163261        1.6305437539       -2.1885325816
 H          3.0736265470        1.8456152232       -1.2455245847
 H          3.3763370608        0.6826626187       -2.2776293050
 O         -2.7280026288        3.1736304734        0.1524444926
 H         -1.7879824869        3.3276922588       -0.0344596107
 H         -2.9201060165        3.6606523136        0.9867055680
 O         -4.9714047752       -0.1097783697        3.1952166522
 H         -5.8720247300       -0.4709456121        3.0367166964
 H         -5.0673042068        0.8455880773        3.0191136965
 O          4.2354906775        0.1792331356        2.4330239092
 H          3.8877917868       -0.3528506934        3.1674081761
 H          4.2051045166        1.1057398372        2.7278587288
 O         -2.1583901380       -0.0068991539        2.9107399676
 H         -3.0606306829        0.0313260710        3.2502234461
 H         -2.1200572762       -0.8312545326        2.3787145665
 O          1.6353512973       -2.9431732268       -0.3155181988
 H          2.4914096327       -3.4002414866       -0.4435521016
 H          1.8333377802       -2.0567668479        0.0172270421
 O          0.6797718377        1.1901053664       -3.2767963254
 H          1.5972590456        1.2838117851       -2.9554926029
 H          0.7081526105        0.4700154057       -3.9292139778
 O          1.7500086550        1.6909051334        2.8541773438
 H          0.8763553355        2.0965237215        2.9826314132
 H          1.9183706268        1.1345205978        3.6428729270
 O         -0.8795785157        2.4476594089        2.7346424263
 H         -1.3269774543        1.5846510851        2.7582283444
 H         -0.7732286412        2.7093843742        1.8098952767
 O         -0.0515388207       -1.0097288461        4.3476738445
 H         -0.4381735628       -1.8792368384        4.5996926379
 H         -0.7883329236       -0.5045381752        3.9635609269
 O         -0.0227977650        3.5075202882        0.1015532304
 H          0.6359817001        3.9060777005        0.6961112608
 H          0.2602451639        3.7077512979       -0.8070588525
 O         -4.3981016337       -1.0651911882        0.7112288366
 H         -5.1325731067       -1.6400464163        0.4350293697
 H         -4.5572131945       -0.8113076309        1.6380925608
 O         -2.1194950456       -2.4332498123        1.6805501128
 H         -1.3859576540       -3.0684223309        1.7696462598
 H         -2.8012326548       -2.7060098307        2.3284178981
 O          1.6789227540       -1.6318937806        2.4177730821
 H          1.1184055464       -1.3187802474        3.1642585707
 H          1.7243563590       -0.9161918663        1.7658988497
 O          5.6852613645       -3.2125707358        1.3722223998
 H          6.1565797068       -2.5712626879        1.9479560916
 H          4.9369012407       -3.5515064954        1.9077993450
 O          0.1144440299       -3.8730437935        2.2014029966
 H          0.6565872899       -4.5799528932        1.8276729416
 H          0.6847098260       -3.0802959810        2.2030201498
 O         -0.1383629626       -5.0020624766       -0.6753784914
 H         -0.2161256274       -5.0217296304       -1.6536185607
 H          0.3169804888       -4.1684786703       -0.4733647108
 O         -1.6334444601       -2.2044834204       -3.0582577463
 H         -2.2044028290       -1.5300695524       -3.4725453887
 H         -2.0802427092       -2.4715874387       -2.2315972781
 O         -3.2242728881       -0.1487590964       -3.8966104573
 H         -2.7752523990        0.0046880600       -4.7465090293
 H         -2.7611369179        0.4741134730       -3.2760308383
 O          3.0104258167        4.5382758844       -1.1349631923
 H          2.2331100480        4.5530027566       -1.7075778172
 H          2.8845672671        3.7698456486       -0.5533604014
 O          3.0938439789        2.2002256470        0.4581395876
 H          4.0271649685        2.3472067240        0.7113885960
 H          2.5764100864        2.1604621749        1.2814396557
 O          5.7681144256        2.5977723297        0.7671245110
 H          6.1460138654        2.3010019889        1.6234283495
 H          5.8453701550        1.8408065127        0.1471175336
 O         -4.6626260104        1.3324623201       -0.3382590888
 H         -4.4572481656        0.4259024711       -0.0252776843
 H         -3.9225793350        1.9121665192       -0.0974936233
 O         -7.2225517088       -1.0417529250        2.1545478034
 H         -7.1331001546       -1.8959840767        1.7224782068
 H         -7.2259981804       -0.3708136968        1.4283763999
 O          6.6400829725       -1.0484295029        2.6735155994
 H          5.8157574858       -0.5525018430        2.4902638118
 H          7.2785198838       -0.7592348562        1.9866314311
 O          5.8566417381        0.4679093090       -0.8189466480
 H          5.8600994188        0.4886035740       -1.7990521983
 H          5.2586149338       -0.2570045537       -0.5438318497
 O         -4.9821259946       -4.3017468330        1.6625911284
 H         -4.1994789644       -4.6408189774        1.2071332862
 H         -5.5296983700       -3.8631657142        0.9924282833
 O          3.4094779843       -0.9568999760       -2.3243641352
 H          3.5768810747       -1.2014131846       -1.3969442312
 H          2.4626711259       -1.1315269117       -2.4899615486
 O          0.9427495798       -1.8419375805       -2.6183176905
 H          1.0640232094       -2.3708579782       -1.8018819401
 H         -0.0105011437       -1.8712761075       -2.8486607490
 O          5.8040587004        0.6989887851       -3.4753674335
 H          5.9418519602        1.6506543917       -3.5377482418
 H          4.9289265943        0.5344248488       -3.8787296437
 O         -2.9468707495       -2.9440414659       -0.8305340566
 H         -2.9955920847       -3.9023036217       -0.7686573343
 H         -2.7080094572       -2.6511029592        0.0777052003
 O         -7.1268106944       -0.1837082649       -2.2555021864
 H         -6.7351420597        0.5935259294       -2.6918643243
 H         -6.4073678941       -0.8427833769       -2.2631827884
 O         -4.9010886673       -1.7696150872       -2.3487151839
 H         -4.4299384364       -1.2698595870       -3.0303860342
 H         -4.2113044986       -2.1067150564       -1.7500292132
 O          3.9348034426       -4.2778705775       -0.7819459534
 H          4.7620258038       -4.1436069228       -0.3116060910
 H          4.1134911048       -4.0587337956       -1.7290828136
 O         -3.8923512458       -2.8904326076        3.6197716905
 H         -4.3932443018       -2.0860906888        3.7850412209
 H         -4.4473819909       -3.4693446887        3.0494836254
 O          4.3415338716       -3.3228410024       -3.2364951492
 H          5.2812651523       -3.1454153293       -3.4418384051
 H          4.0009252005       -2.4300297735       -3.0277712309
 O         -7.2320313398        0.8136677794        0.2184483536
 H         -6.3322093006        1.1894783975        0.2059269299
 H         -7.3128672399        0.4012204682       -0.6720336162
 O         -1.3438543060        0.5235786202       -5.7146727468
 H         -0.5268447039        0.0008997868       -5.6935074449
 H         -1.0845540514        1.4361231548       -5.5736064238
 O          4.9585890549        3.4370318841       -2.8883872082
 H          4.6977857285        4.1736335217       -2.3239352880
 H          4.3654222280        2.7083740876       -2.6014734353
 O          4.1373024922        2.8185995797        3.3446607388
 H          3.1682785494        2.7020341358        3.3190958668
 H          4.3210882287        3.6755217600        2.9497755885
 O          6.7419895457        1.8321885858        3.1511492033
 H          6.9294729117        0.9084779071        3.3556358472
 H          6.0020683478        2.1161744243        3.7002241315
 O          3.3935951164       -3.7240951759        2.6621203001
 H          2.7940806524       -2.9729884180        2.4857870915
 H          2.9588293902       -4.5041487746        2.2920011948
 O          4.4026057868        4.9761153553        1.2048044908
 H          4.0958339965        5.2507244273        0.3300432882
 H          5.0279536914        4.2539736471        1.0317585811
 O         -3.0993494265        4.1094404974        2.6123676554
 H         -2.3364650583        3.6390156664        2.9818860332
 H         -3.8851297441        3.5639411738        2.7828123591
 O         -0.3071577937       -4.6606579205       -3.3328656252
 H          0.4673895160       -4.4674923583       -3.8841025792
 H         -0.8970245110       -3.9006026001       -3.4424329408
 O          0.6633333820        3.8818325672       -2.5858482907
 H         -0.2216799465        4.2369113507       -2.8010151955
 H          0.6118029549        2.9495995035       -2.8543411892
 O          4.2701500659       -1.7349161805        4.4278814963
 H          5.2293566094       -1.7416703070        4.3650257541
 H          3.9622432047       -2.5776088421        4.0649749555
 O         -1.9577641166        4.1341870499       -3.0118242226
 H         -2.7679486936        4.5637065285       -2.7147358391
 H         -2.0627666979        3.1913049710       -2.7827452521
 O          2.0644514052       -5.5789229351        0.9254661943
 H          2.7945243111       -5.3533317248        0.3302745318
 H          1.3147628645       -5.7394940664        0.3308526168
 O         -1.2271925172       -3.3799422455        4.5997638163
 H         -2.1732850135       -3.3186291705        4.4106460475
 H         -0.8034861468       -3.7857592006        3.8268124088
 O         -5.3840430476        2.5438028164        2.5984959639
 H         -6.0349413331        2.8914127849        3.2093182786
 H         -5.6464244443        2.9098397686        1.7142191399
 O          6.7242341638       -2.1265455393       -3.4184234543
 H          7.0714158018       -2.2862844583       -2.5249307310
 H          6.5661914956       -1.1784004923       -3.4879246135
 O         -5.2327113525        1.6843571191       -2.9173784929
 H         -4.9814333414        1.4811560289       -1.9887838937
 H         -4.6368547337        1.1619737975       -3.4698953342
 O         -6.4016825841       -2.7430952779       -0.1463507605
 H         -6.0037090238       -2.8083939085       -1.0219008861
 H         -7.3501413465       -2.5197259971       -0.3333743937
 O         -6.2782160385        3.6865477941        0.3748769650
 H         -6.9720915525        3.1769102427       -0.0496961589
 H         -5.6763682138        3.9849811388       -0.3407026856
 O         -2.4719520215       -5.2441477378        0.6210577251
 H         -1.6096837421       -5.1731844944        0.1499066909
 H         -2.3332919698       -5.8937598244        1.3091491055
 O          7.4287824176       -2.5225885887       -0.7782874506
 H          7.9318837235       -1.8175372199       -0.3490655369
 H          6.9535141524       -2.9777583127       -0.0756006529
 O          1.8643367819       -3.3665699877       -4.5875033564
 H          2.7802616663       -3.6006112085       -4.3867307694
 H          1.5768398697       -2.8130330635       -3.8295262191
 O          8.0537797762       -0.1584228131        0.5737329208
 H          8.5782758685        0.6538270712        0.5950532928
 H          7.2887863821        0.0715453532        0.0019563156
 O         -4.5149755131        4.1483042510       -1.6624478020
 H         -4.7836125715        3.4185857043       -2.2429020245
 H         -3.8210550646        3.7988038625       -1.0684615903
 O         -8.8096196889       -1.9312437518       -0.8110461190
 H         -9.2974082167       -1.3637748603       -0.1815278277
 H         -8.5634503629       -1.3596235710       -1.5492504485
 O          8.5236892495        2.5106388120       -0.0269892294
 H          8.6011680502        2.7591717340       -0.9485466854
 H          7.6682244860        2.8418404405        0.2814893989
 O          1.1398263286       -0.6658753447       -5.2886278806
 H          1.2740095656       -1.6244862572       -5.2809944959
 H          2.0271208634       -0.2684218622       -5.2216283229
 O          3.4603294845        0.7413915142       -4.9152244769
 H          3.8945198311        0.7319603329       -5.7669756958
 H          3.1397256089        1.6704261556       -4.7822749070
 O          1.8151343252        4.4525775348        1.9190719937
 H          1.4596340288        5.1493428065        2.4689939600
 H          2.7312338447        4.7015775355        1.6878068672
 O          2.8187031779        3.3037352039       -4.6217414813
 H          2.0935306617        3.6053076604       -4.0610205404
 H          3.6384820451        3.5553064682       -4.1588598839
 O         -9.7330383428       -0.1344088359        1.0290969688
 H         -9.3643121029       -0.5068474890        1.8373560463
 H         -9.1069155435        0.5468435136        0.7500792780
 O          2.2889996635        0.1897164955        5.0151758624
 H          1.4287230290       -0.2544785803        5.0768980948
 H          2.9586158213       -0.5031837801        5.0685960410
