  536

 H          0.4630929719        1.1941016245        0.8323458585
 C          0.5529031610        0.5095379046       -0.0251087197
 H          0.4633421741        1.0989808292       -0.9466434645
 C         -0.5779255342       -0.5149484368        0.0205360018
 H         -0.4518489181       -1.1270266960        0.9278144244
 H         -0.4840892758       -1.1748687392       -0.8448900366
 N         -1.8603250426        0.1647706821       -0.0623323002
 H         -2.6131025174       -0.5138497698       -0.0751519271
 H         -1.9956543411        0.7570062104        0.7508163286
 O          1.7808077417       -0.1833445803        0.0209872537
 H          2.5006926335        0.4507207459       -0.0567169637
 O          1.7732988730       -3.2342555312       -0.8427096797
 H          0.9720241161       -3.2156867764       -0.2794667116
 H          2.3803607412       -2.5361034403       -0.5364857310
 O          3.8389819974       -1.7060981201       -0.3474115517
 H          4.2357673601       -1.2519799481        0.4165040453
 H          4.4152148910       -2.4501962445       -0.6222261312
 O         -4.6087676771       -0.0980342166       -3.4867774368
 H         -4.4885614596        0.5738166878       -4.1847171612
 H         -3.8701831330       -0.7343877734       -3.5777906172
 O         -2.9021128287       -2.6637970379        0.0668287476
 H         -3.7169838437       -2.5481392907       -0.4461170424
 H         -2.9121648881       -3.5713180829        0.4441491588
 O          2.7437018622        2.7423736116       -1.0546497684
 H          3.4483412727        2.0826944903       -0.9085979958
 H          3.1110089121        3.6013053205       -0.7602651873
 O          2.1070358795       -2.0418956579        2.0781300089
 H          1.9635605288       -1.3781655164        1.3808567607
 H          2.9672116616       -2.4483653517        1.8785360275
 O          1.1700983203       -2.5106475012       -3.3591450488
 H          0.3748623942       -1.9706928006       -3.2281928121
 H          1.4511122927       -2.7972021753       -2.4645670648
 O         -0.3483407750       -3.6996940585        0.6223599857
 H         -0.3720797112       -3.4227890758        1.5556319919
 H         -0.3625416386       -4.6656772227        0.6131910325
 O         -4.1800881285        1.8402308935       -5.3874083520
 H         -3.9021832731        2.4663536950       -4.6662574047
 H         -3.3726279615        1.4134897487       -5.6976591856
 O          4.7001950963       -0.1594054845        1.6471734593
 H          5.4860086541       -0.3705749313        2.1966733654
 H          3.9542294182        0.0975587824        2.2150254059
 O         -4.8691003207        0.1097810532        3.7719877640
 H         -4.4429301690        0.9910893260        3.7878417277
 H         -4.8957517272       -0.1695338311        2.8329291229
 O          0.1393116359       -0.2902868029        3.3552052458
 H          0.0049448483       -1.2530522563        3.2472384247
 H          0.9829658365       -0.0510040787        2.9338492076
 O         -0.5013608272       -2.8391242807        3.1673494549
 H         -0.3272818395       -3.4163030910        3.9331309510
 H         -1.4512565581       -2.6095276334        3.1596925899
 O         -2.8389666124       -1.7452230693        2.5459925948
 H         -2.8168148284       -1.9925057313        1.5952312471
 H         -2.6983173501       -0.7792329993        2.6006086279
 O         -1.8677799806        1.5378295982       -2.2757008740
 H         -1.1073727438        2.1520211758       -2.2078645104
 H         -1.9807863429        1.1124087322       -1.3778790889
 O         -2.0850629339        0.7893423683        2.8155619643
 H         -2.3821908821        0.8895158224        3.7404557463
 H         -1.1754302173        0.3962450319        2.9404690648
 O          1.5316268521        1.0203094017       -3.4863979107
 H          2.1587423579        0.4024983353       -3.0632001059
 H          2.0145682370        1.3587518314       -4.2628555086
 O          2.4328156654        0.8434709202        2.7021525589
 H          2.3939846478        1.0340105639        3.6715674118
 H          2.0704259328        1.6259644258        2.2669332057
 O         -0.6512008414       -0.5014053059       -3.4114835970
 H          0.1895686508       -0.0099040453       -3.5283820746
 H         -1.2029471154        0.1183443326       -2.8883765515
 O         -1.0395397063        3.1456424929        2.4358374029
 H         -1.5485228340        2.3025625883        2.5035356650
 H         -1.6958497633        3.8671739957        2.4613827992
 O          1.4510047622        3.1733589769        1.5748319675
 H          1.4283756326        3.6870194508        0.7390370041
 H          0.5109774780        3.1404386895        1.8510276236
 O          4.0461069523        5.0057746212       -0.5099683491
 H          3.6852649388        5.7367854757       -1.0547407060
 H          4.1740875839        5.3828891764        0.3685940884
 O          4.7875825798        1.1039985366       -0.6424991100
 H          4.8249951798        0.7795591277        0.2820143435
 H          5.1681589237        0.3817390349       -1.1741232364
 O         -4.4121999557        0.9410971606       -1.0346936459
 H         -4.6596757023        0.2275699397       -0.4315876609
 H         -4.4119316579        0.5502262648       -1.9335203741
 O          0.2462041066        3.1547311502       -2.2144605335
 H          1.0845772892        2.9181472864       -1.7935591833
 H          0.4809737951        3.5157583598       -3.0810926609
 O         -3.9193877831        2.6296067352        3.7679954986
 H         -4.7651232989        2.9358331308        4.1419486495
 H         -3.9151316576        2.8259349916        2.8175749916
 O         -5.1775738929       -2.3247104171       -1.3882869443
 H         -5.7672783116       -1.5695175121       -1.5727426936
 H         -5.1952717558       -2.8922355926       -2.1755425346
 O         -2.2637342695        0.6652250081        5.4674576425
 H         -2.9352300910        0.1156220260        5.8877599467
 H         -2.3475295932        1.5772161376        5.8086500433
 O         -4.1002504095       -1.3283565597        5.9384668099
 H         -4.3876834829       -0.9321983068        5.0942418221
 H         -4.7271518699       -2.0526616664        6.1111156776
 O         -6.5920139160        3.1632449918        2.1917454542
 H         -6.4981156894        2.6319002353        1.3917324457
 H         -7.5223409504        3.4563104718        2.2023793362
 O          4.3942400272       -3.4772974083        1.7114539166
 H          5.1881793266       -3.2564636555        1.1893505412
 H          4.4290942824       -4.4299846281        1.9380697147
 O          4.3971284110       -0.4939654417        4.6487827196
 H          3.4867433893       -0.8156768003        4.8062613842
 H          4.8920970991       -1.3057553629        4.3944849165
 O          3.4297182904       -0.7120950159       -2.7586748846
 H          3.5250753590       -1.0348254309       -1.8388045382
 H          3.5371594652       -1.4873169759       -3.3388808517
 O          1.6608363165       -1.0981257693       -5.6902035141
 H          1.6442323210       -1.5775903306       -4.8445416494
 H          2.0956602184       -0.2510246660       -5.5439611643
 O          4.2312230553        2.8673815829        1.7089241208
 H          4.3025310917        2.5039709610        2.6242537539
 H          3.2995272561        2.8648170557        1.4653640679
 O          7.9827178313        3.2437819657        3.5005879317
 H          7.5288221047        3.0229489715        2.6533139334
 H          7.3569229613        3.8213769872        3.9901657528
 O         -4.8733394880       -3.1935940129        3.1432383839
 H         -5.0643602215       -3.5564086617        2.2526518571
 H         -4.1670529519       -2.5207672321        2.9951578113
 O          2.0849075668       -1.7855224817        4.7920697975
 H          1.9766589558       -1.8195865290        3.8184276983
 H          1.2904745622       -1.3798676222        5.1691796212
 O         -7.3993993980       -2.3262946618        3.4176835348
 H         -7.6367145845       -2.0603048040        2.5075596255
 H         -6.4323925206       -2.4749470571        3.3771880086
 O         -2.7667208642        5.1761929754        2.7588723752
 H         -3.7214301098        5.2412749954        2.9758384060
 H         -2.6009659157        5.7979029939        2.0220974052
 O         -5.2985867424       -0.3859540704        1.1980501982
 H         -6.0262407969       -1.0287376720        1.0462922373
 H         -5.7279390132        0.4714177940        1.0864109968
 O          6.7225650564       -2.5398251306        0.7081064169
 H          7.2819348214       -3.3583620083        0.6809272521
 H          6.9014625869       -2.0802474114        1.5449663438
 O         -1.2190461133       -3.3170991981       -1.9938198090
 H         -1.4847424553       -3.1410009943       -1.0727822917
 H         -0.4265352580       -3.8939378883       -1.9675469948
 O         -6.6293339340       -1.5581825927       -4.5666909299
 H         -5.8987365595       -1.0886407720       -4.1052728356
 H         -6.2238295761       -2.2441781044       -5.0990267433
 O         -3.6399916873        2.8028566181        0.9198231685
 H         -3.8519819432        2.1137708848        0.2729183922
 H         -2.8318062952        3.2293561796        0.5806973703
 O         -2.0997805743        0.0613779213       -5.5437871490
 H         -1.7194340990       -0.3549405742       -4.7340348012
 H         -1.5187731511       -0.2738602482       -6.2805628472
 O          5.2318725566        1.0385286300       -3.6117665353
 H          4.6237010440        0.3932931296       -3.1902664961
 H          4.7227618467        1.8667912683       -3.7025109767
 O          1.7182445684       -4.6824332440        2.7683910107
 H          2.2613959943       -4.6758414010        3.5778884992
 H          1.5866298899       -3.7476406536        2.5363525713
 O          2.4362890971       -5.5470420201        0.3599597483
 H          2.3398051968       -5.2583903343        1.2931443707
 H          2.2768687777       -4.7401856494       -0.1844115506
 O         -5.7629697894        3.0494133993       -1.9703795915
 H         -5.4038234082        2.2762880598       -1.4887222677
 H         -5.6884920607        3.8098514423       -1.3570287973
 O         -6.7426295631        0.9656164844       -5.8231016605
 H         -5.8204260884        1.2657180505       -5.8596607988
 H         -6.7144602594        0.0084093920       -5.6640217309
 O          1.0598787103        4.9793777192       -0.2484066658
 H          0.9256694108        5.2676682334       -1.1709480843
 H          1.5629027902        5.6942209375        0.1873326384
 O          1.9899002933        1.4167230185        5.2044244501
 H          1.3768254502        0.7263795588        5.5035946202
 H          1.4498776160        2.2187985565        5.0877449634
 O         -7.0429959384        1.4400649932        0.1286444552
 H         -7.6394267282        2.1432100999       -0.2138091689
 H         -7.0501055666        0.7404133246       -0.5585532259
 O          6.2009167510       -0.9815053043       -1.6796756217
 H          6.2469382018       -1.6190385184       -0.9570688897
 H          6.3615307342       -1.4921627366       -2.5037101830
 O          6.9927034391       -0.7590538115        2.7741796559
 H          7.5932659681       -0.2313291455        2.1986421795
 H          7.1055388853       -0.3489813527        3.6517727741
 O         -1.7092900804       -2.6253341217        6.0304951269
 H         -2.5752946074       -2.1745960427        6.0477663682
 H         -1.0526927453       -1.9233452301        6.1453776333
 O          3.1312165398       -4.7397110672       -2.9048156066
 H          2.2343335455       -4.9237840630       -2.5671640702
 H          3.0352730028       -4.0900541601       -3.6089099235
 O         -2.7324896762       -5.2987780270       -2.8319315416
 H         -2.1695927321       -4.5343377874       -2.5499298230
 H         -2.7120437353       -5.9211905016       -2.0834315157
 O          8.8827838100       -1.2233527883       -0.3970759917
 H          8.0746418728       -1.6866727352       -0.1234915615
 H          8.8927298662       -0.4017420116        0.1294909423
 O         -2.8792316307       -5.0307250091        1.2801333870
 H         -3.6325600146       -5.3909743539        1.7721574157
 H         -2.1033507943       -5.2400422986        1.8231511840
 O          5.1155414660       -3.7777439250       -1.3475575021
 H          5.1639348614       -4.5504184751       -0.7521480976
 H          4.4128881171       -4.0221967657       -1.9853768228
 O          8.5234998241        0.8004249227        1.3150389440
 H          9.2334474957        1.1890854761        1.8679562251
 H          7.9663146246        1.5305589300        1.0009080047
 O         -3.5061230333        3.2470858720       -3.3257463831
 H         -2.9614687120        2.5580973951       -2.8683348883
 H         -4.3703997700        3.3052791983       -2.8619382703
 O         -1.5549274333        4.1073582763       -0.2795816697
 H         -1.7363658757        4.3823449156       -1.2049316779
 H         -0.5877918876        4.1024419564       -0.2225863823
 O         -1.5951392710        4.8270255386       -5.3592771042
 H         -1.2852080966        3.9174426750       -5.2214817479
 H         -1.5942691460        5.2394570954       -4.4874693148
 O         -7.8831372355       -3.6100763746       -0.9938226871
 H         -8.2439205421       -3.1386435417       -1.7614057074
 H         -7.4520077848       -4.4235950424       -1.3553061967
 O         -6.9934186003       -0.3843646937       -1.8314135419
 H         -7.7319021362       -0.9899717544       -2.0054094416
 H         -7.0439544069        0.3017210403       -2.5271911116
 O         -0.6769065294        2.2519196543       -4.9790941933
 H         -0.0522560671        2.0061605190       -4.2845849844
 H         -1.2935640651        1.5020521748       -5.0820495324
 O          1.3472672081        4.1900981004       -4.5266127453
 H          1.1657809040        4.1262070082       -5.4639307034
 H          2.2297179085        3.7891357233       -4.3452598028
 O          5.3526472431       -2.8824616585        4.0857702123
 H          6.3194730443       -2.9668691640        3.9756816416
 H          4.9646973915       -3.0180006295        3.1907552312
 O          3.1621386901       -4.2255824586        5.0291464304
 H          4.0770973792       -3.9808150494        4.8174430930
 H          2.7211507513       -3.3556421220        5.1006783981
 O         -7.5683438842       -1.6731723178        0.8044046711
 H         -7.5171639675       -2.4388204178        0.2055957964
 H         -8.2433839535       -1.0846428934        0.4059595687
 O         -2.8729274135       -2.0978996683       -3.7321534576
 H         -2.1775128056       -2.3232581493       -3.0897020154
 H         -3.5755594709       -2.7607109358       -3.6222908546
 O          0.2164780987        3.4268309188        4.7238985912
 H         -0.1928695328        3.2488864677        3.8426582654
 H          0.3690091079        4.3811369634        4.7378959435
 O          0.0706623752       -0.4120040675        6.1604786057
 H          0.1192271136        0.1493551257        6.9489430855
 H         -0.6859104155       -0.0359436140        5.6584823843
 O          2.0603367473        5.2391960893        3.2044201920
 H          1.8517629426        4.4755312050        2.6291228603
 H          1.4474451126        5.9439082495        2.9378455439
 O          5.9350341264        3.3563159624       -1.5417056622
 H          5.5201340142        2.5377406771       -1.2010036272
 H          5.3764081783        4.0860555768       -1.2160121569
 O         -5.2106753386        4.7727705966       -0.0160134273
 H         -6.0424752120        5.0099377223        0.4385835171
 H         -4.7199240827        4.1300083588        0.5324951897
 O          0.5753658294       -5.3156229995       -2.1078777180
 H          0.2017047566       -5.8582567277       -2.8477775333
 H          0.4679719977       -5.8348727432       -1.3080079761
 O          2.7869079927        1.4963846326       -5.8076745599
 H          3.5403341361        2.1155291848       -5.8782441310
 H          2.1187390246        1.7324607306       -6.4855438066
 O          4.5403024897        2.1619706915        4.2174773844
 H          4.5320483959        1.1942818757        4.3357476317
 H          3.8046771805        2.5207104999        4.7500185008
 O         -0.8181285196       -5.8276310765        2.9276471426
 H          0.0450838298       -5.4251880626        3.1293737886
 H         -1.4094373315       -5.5922224309        3.6611707534
 O          8.2451251174       -4.6381569736        0.4040707565
 H          9.1560455449       -4.2716145098        0.3065028296
 H          7.9828713288       -4.9002856904       -0.5023682503
 O         -7.4136125473        0.1591509960        4.4626227218
 H         -6.4452000045        0.2287639884        4.2958894185
 H         -7.5970390857       -0.7918101845        4.3515593963
 O         -8.6558632984        0.6169156056        2.1292482417
 H         -8.1680409905        0.4886076990        2.9663221141
 H         -8.0083786749        0.8310293867        1.4309252296
 O         -9.4790724662       -0.2085286757       -0.4382464023
 H        -10.2851657010       -0.7788552861       -0.3977022492
 H         -9.7721668009        0.6020650739        0.0320639781
 O          4.9954175940       -6.1015945272       -0.0042961178
 H          5.3202571225       -6.4071166685        0.8454715503
 H          4.0195649648       -6.0144798887        0.1061848364
 O         -1.8074619422       -3.0936286865       -6.0753322691
 H         -1.0350607463       -3.6363585961       -5.8002610357
 H         -2.1067326814       -2.6471809796       -5.2621235838
 O          7.3402336836       -5.5547061628        2.8218142199
 H          7.7022551944       -5.4031252592        1.9329599159
 H          7.6500682238       -4.8044898407        3.3532105884
 O         -2.8653852469       -4.7001827364        4.4135295206
 H         -3.5241649702       -4.1725594797        3.9343552118
 H         -2.4842757028       -4.1085035982        5.0736069623
 O          7.8189033162        1.1679085904       -1.4738970203
 H          7.2827575569        0.3573442185       -1.5504914018
 H          7.2617228888        1.8984709045       -1.7432819186
 O          6.8227632531        2.8861048796        1.1236966631
 H          6.8302888720        3.8176943212        0.8255285336
 H          5.8849196240        2.6545099867        1.2016211223
 O         -7.5189060935        1.7051873381       -3.4585833950
 H         -6.8654930801        2.2987138865       -3.0369304668
 H         -7.2237817345        1.5241663452       -4.3897040455
 O         -4.8767013777       -4.0177627481       -3.5007615265
 H         -4.1297184580       -4.6204618261       -3.2622790692
 H         -4.8834618240       -3.9913518260       -4.4874533792
 O          9.8814590657       -1.9728270128        2.3049214979
 H         10.3124102820       -2.7539245961        1.9476748500
 H         10.2936839701       -1.2255971413        1.8198590525
 O         -0.0270630853       -6.5221926299        0.4694379074
 H         -0.2927115316       -6.5605803987        1.4021865984
 H          0.9457001723       -6.3752069449        0.4745052340
 O         10.3246199387        1.8417975606        3.0180751907
 H         10.3786314013        1.0775189792        3.6460417083
 H          9.6945330617        2.4580173230        3.4145429337
 O          8.5824852171        4.1441191508       -1.2732620220
 H          8.9185306407        4.3660494028       -0.3969353553
 H          7.6781718566        3.8099352712       -1.1530278061
 O          7.8625220312        0.7564864931       -4.3112296420
 H          8.3938665613        1.5349602613       -4.0587384474
 H          6.9599668931        0.9039336450       -3.9777676902
 O          0.5733482822        6.0398218066       -2.7074320161
 H         -0.3909982416        5.9362749451       -2.6672573567
 H          0.8632563377        5.5008843419       -3.4649579913
 O         -4.5131049505       -3.6166774646       -6.0650984532
 H         -3.5714328277       -3.8046222817       -6.2096104689
 H         -4.5722605938       -2.6570769337       -6.2446211459
 O          6.7909998052        6.1948785529       -1.9984082178
 H          6.6177734054        6.1287201149       -1.0450972497
 H          7.5773186960        5.6506721261       -2.1394269091
 O         -5.6192488095       -3.9922527008        0.6932650101
 H         -5.3016670192       -4.8516745244        0.3592437080
 H         -5.5723373493       -3.3668907124       -0.0537122392
 O          0.3549228344       -4.3195698752       -5.1743887663
 H          1.0853246841       -4.2194831316       -5.8253805966
 H          0.6190431568       -3.7461852354       -4.4235251371
 O          3.9743790052       -2.6431576173       -4.6486533830
 H          4.6753345312       -3.3360676392       -4.6867706624
 H          4.3178142810       -1.8938308811       -5.1735847676
 O         -2.0789727552        5.3206883029       -2.5961881814
 H         -2.7089991490        5.9578527353       -2.1932722246
 H         -2.6499452453        4.6072162991       -2.9719347280
 O          7.4506629328       -4.8442097110       -2.1620189586
 H          6.7157380612       -4.2097516823       -2.0357287650
 H          7.0163928146       -5.6520546569       -2.4674864858
 O         11.3111222205       -0.0549294868        1.0655023664
 H         11.7360485803        0.4823769165        1.7351950452
 H         10.9013081420        0.5756324311        0.4167732000
 O          7.0537334183       -2.4208495350       -3.7368151973
 H          7.9610839657       -2.2347700766       -3.4429638308
 H          7.0470428643       -2.0670281051       -4.6590333226
 O         -2.2232538648        3.3052622880        5.8595765602
 H         -1.3348561662        3.4048584299        5.4567500087
 H         -2.8476434756        3.3065094409        5.1151482696
 O         -6.6292778004       -5.6166323602       -2.0898941565
 H         -6.0640723545       -6.0844441768       -1.4586706362
 H         -6.0432428001       -5.1341500579       -2.6977072584
 O         -8.8150687205        3.2973720961       -0.5158453380
 H         -9.5956262493        2.8878617390       -0.0925804197
 H         -9.0683098056        3.4599525509       -1.4509801660
 O        -11.7922812955       -1.4385085256       -0.2152274957
 H        -11.7133768496       -2.3052726984       -0.6650336176
 H        -11.6330595522       -1.5949109415        0.7328409968
 O        -10.4422487820       -1.6305361655        2.1379672959
 H        -10.0812334306       -2.4934457795        1.8692858804
 H         -9.7227405063       -0.9807020349        2.0896727894
 O         -8.8031366064       -2.1348555736       -3.0498932258
 H         -9.4210938835       -1.3970942285       -3.2110633062
 H         -8.1038287080       -2.0536587722       -3.7252870438
 O         -9.9097362683        0.3301319299       -2.9973318559
 H         -9.7032123893        0.2080221796       -2.0394878660
 H         -9.1564772313        0.8129456572       -3.3601020671
 O         -9.2340116177        3.1881997547        2.5896233979
 H        -10.0240126666        3.5514219092        2.1905460644
 H         -9.2164353557        2.2339858023        2.3408996637
 O         -0.4915893210       -1.0241138791       -7.2351818481
 H         -0.9324061067       -1.8849190947       -7.0886937766
 H          0.3317470194       -1.0729204426       -6.7003990702
 O         -0.6367906976       -6.5494503615       -4.0668682051
 H         -1.5233067702       -6.2104020899       -3.8565583553
 H         -0.2603083297       -5.9070330647       -4.6966410517
 O        -10.8216006902        1.9041854351        0.5214246910
 H        -11.1729584235        1.5531824627        1.3765621259
 H        -11.4922873328        1.7035784644       -0.1638585634
 O        -12.2565278099        0.9532922727       -1.5371252273
 H        -11.6469467735        0.7647689019       -2.2639390661
 H        -12.4081911443        0.0969916527       -1.1083538910
 O          4.6239972800        5.4054892703        2.3536414246
 H          3.7284452106        5.6770625143        2.6233997819
 H          4.5264385538        4.4599087035        2.0877754706
 O          4.8031107788       -0.3535286842       -5.8644983987
 H          5.0537512551        0.1671581774       -5.0664576133
 H          4.0399949268        0.1117157673       -6.2290006328
 O          9.2980546826       -1.1084205564       -3.0364512471
 H          9.1413006004       -1.0257453179       -2.0720168339
 H          8.7609421684       -0.4089725831       -3.4735219064
 O          5.9111271797        4.4959809878        4.5714548215
 H          5.4716116688        3.6278728398        4.5497072503
 H          5.5152092972        4.9997681121        3.8346790248
 O          2.4002493823       -3.5899901209       -6.6699481092
 H          2.0978949188       -2.7232893602       -6.9585177559
 H          3.0471055662       -3.3937468725       -5.9650252227
 O          5.2456353561       -6.4935748584       -2.7240941633
 H          5.2365148601       -6.6330398824       -1.7656735020
 H          4.3923214925       -6.0666848583       -2.9088321367
 O          3.0031181492        7.0208195722       -1.9471687292
 H          3.5821004763        6.8017523155       -2.6929751956
 H          2.0998319784        6.8318709715       -2.2474319048
 O          4.7387164763       -5.8881324083        2.7613950043
 H          5.7169979652       -5.8216176514        2.8880910501
 H          4.3434131573       -5.9906208724        3.6274141087
 O         -5.3735344864        5.6499050416       -3.3718297954
 H         -6.3093390924        5.4970875393       -3.4941404930
 H         -4.9432467717        5.3771067967       -4.2108679392
 O          0.1919770801        7.0964649843        2.3716869866
 H         -0.5002596403        6.9680914553        1.7011459859
 H         -0.2423800178        6.9581587813        3.2240642000
 O         -3.9456530588        6.7306651651       -1.3379009184
 H         -4.4986544453        6.6969276308       -2.1347855876
 H         -4.3686473778        6.0594346966       -0.7632143649
 O         -5.3545005497        5.3089525078        3.3053480926
 H         -5.6805677155        5.1592779047        4.1947568323
 H         -5.8342421700        4.6748403657        2.7424949324
 O          3.6036308190        3.2166065773       -3.5583471748
 H          3.2260241486        3.0247618044       -2.6744252563
 H          4.0779956666        4.0699161297       -3.4920587522
 O         10.5038642010       -3.3540699740       -0.1607919783
 H         10.0532076509       -2.4852512775       -0.2104688246
 H         10.4930019209       -3.6738084979       -1.0894149053
 O         -6.3681427604        3.0000148649        4.8840018379
 H         -6.7198209464        2.9409501597        3.9800766456
 H         -6.7584674383        2.2748250885        5.3752998003
 O          7.5984311484        0.8649632262        4.7988714231
 H          7.7283672870        1.7493813371        4.4075116239
 H          6.9817470963        0.9567763284        5.5422383344
 O         -4.9253050725       -6.2020072356        2.7605767464
 H         -4.4942001895       -6.1159833101        3.6151085122
 H         -5.8333309904       -5.8606883760        2.8545978868
 O          9.1675577600        4.9164416553        1.5179662680
 H         10.0553117911        4.5471237246        1.3037349870
 H          8.9036548615        4.4648967837        2.3324588618
 O         10.3578746540        1.6163758982       -0.7342564134
 H          9.4090420351        1.5069992162       -0.9396251063
 H         10.8366539008        1.2960977806       -1.5356313919
 O         10.0864587005       -0.2926545268        4.5300214710
 H          9.1818833308       -0.0748599906        4.8090697763
 H         10.0194650143       -1.0037295954        3.8746978546
 O          6.7594586310        3.7424571519       -4.1421769116
 H          7.7081015678        3.5832407518       -4.1331911754
 H          6.4429727494        3.6030362618       -3.2317720607
 O         -4.4635118057       -0.9501348525       -6.3612933629
 H         -4.5235308022       -0.6240340586       -7.2572277681
 H         -3.5835569921       -0.6821324814       -6.0208383091
 O          0.1712837938       -4.4505999801        5.2467026221
 H          1.0564782390       -4.5469239543        5.6032502478
 H         -0.3859058596       -4.0156591028        5.9026608584
 O         -4.2892995612        4.7958706485       -5.6808162641
 H         -3.3116782963        4.8595070928       -5.6536204221
 H         -4.4924989790        3.8877094418       -5.9199187491
 O         -4.9201478215       -6.4991378814       -0.0805228768
 H         -3.9811415867       -6.6544258951       -0.2779856607
 H         -5.0632343055       -6.8331524631        0.8118644367
 O         -1.9250269546        6.5741822010        0.6518786493
 H         -1.7398604817        5.6791358196        0.2786443263
 H         -2.5445338592        6.9865429710        0.0394043599
 O          6.7270172971        5.5527786524        0.6530118467
 H          7.6353225513        5.6441844072        0.9873252813
 H          6.1133707798        5.8125555399        1.3541233676
 O          4.7446730161        5.6484468551       -3.5672654096
 H          5.1424085883        5.5709411669       -4.4361133754
 H          5.5046588494        5.8338122507       -2.9592560444
 O         12.4917110479       -1.2888798853       -1.1040787966
 H         12.1516751509       -2.1881562311       -1.0868093380
 H         12.2043990017       -0.8904210318       -0.2661328139
 O         11.4564615116        0.5312847798       -2.8606348357
 H         12.0806478953       -0.0405598046       -2.3785831193
 H         10.7446697100       -0.0849517196       -3.1225083485
 O         10.0039694627       -3.8356943028       -2.7214063428
 H          9.1118349719       -4.2156196505       -2.6919281026
 H          9.9220182894       -2.9361359987       -3.0641060726
 O         11.3048831107        3.4659461693        0.9965363159
 H         11.2037705290        2.9040239266        1.7778840904
 H         11.0265753740        2.9121826413        0.2440408358
 O          5.7815973342       -4.5614158715       -4.7790031597
 H          6.4835130162       -4.0358465808       -4.3616840137
 H          5.6661885303       -5.3594142160       -4.2522271727
 O          9.4236912179        2.8080273759       -3.4920922444
 H         10.2790598684        2.3703280540       -3.4466748371
 H          9.2852306541        3.2435753469       -2.6289005318
 O          7.3319188524       -1.2546591257       -6.0863065511
 H          6.4230750401       -1.0071171920       -6.3089256363
 H          7.7264467727       -0.4708471102       -5.6742989372
 O         -2.3185955820       -7.0614208078       -0.8522813150
 H         -1.5521391110       -6.7994315417       -0.3081567483
 H         -2.0546149593       -7.8461086020       -1.3319350905
 O          5.1407851178        2.7803910109       -6.0871375101
 H          5.6848993458        3.1623933860       -5.3695169301
 H          5.6965670535        2.1233498597       -6.5087828546
 O          8.0272876732       -3.1499674294        3.9304623502
 H          8.0922965429       -2.7184203259        4.7950436975
 H          8.6003931400       -2.6545389315        3.3220430171
 O          5.6502953830        0.6151742014        6.6871279238
 H          5.0995437511        0.1585587299        6.0073934660
 H          5.1173148362        1.3359613573        7.0217283469
 O          2.5034906596        6.9747009305        0.8440920989
 H          1.8046178483        7.4138422419        1.3431943303
 H          2.6824318781        7.4800972085        0.0441084881
 O          7.1439962726       -1.8346899007        6.1658803897
 H          6.9367021476       -0.9614217642        6.5118864487
 H          6.3043385345       -2.2899982414        6.0669194246
 O         -7.3956855574       -4.9432252511        2.5264446813
 H         -7.5425060739       -4.1493588229        3.0675749963
 H         -6.9210825048       -4.6214395126        1.7374565503
 O          3.0728005637        4.0808273188        5.4655194845
 H          3.8612363277        4.5838404829        5.6818363794
 H          2.6578558066        4.5435588663        4.7158858414
 O         -0.9906194845        5.8897521368        4.5829564319
 H         -1.4023807402        5.8261322851        5.4442483679
 H         -1.6840602061        5.6112896321        3.9390509219
 O          0.6311224313        1.8403294451       -7.2921694934
 H          0.0768504813        2.0921060569       -6.5249919154
 H          0.2990676869        0.9898191224       -7.5944408061
 O         -7.6899380204        5.3258268343        0.8099973730
 H         -8.1547632389        4.6175313111        0.3142979616
 H         -8.0131487650        6.1603229014        0.4763450816
 O        -11.5767824988        0.8733080750        2.8393258627
 H        -11.4404911514       -0.0765121583        2.7439266220
 H        -11.0509747922        1.1350082286        3.6191019318
 O         -9.5757680315       -4.0345931826        1.0366777609
 H         -9.1435023665       -4.6285943613        1.6643687477
 H         -8.9204885593       -3.9039872068        0.3201724077
 O         -9.5464606533        3.4570223506       -3.0600872922
 H        -10.3679484896        2.9792933553       -3.1925449064
 H         -8.8285827274        2.8765198711       -3.3821986798
 O         -5.8383861023       -3.4047052283        5.7412881239
 H         -6.7660385179       -3.1999836648        5.6115408290
 H         -5.4707377197       -3.5687432112        4.8597080384
 O         -9.8167740766        1.6529548403        4.8297364714
 H         -9.0461937538        1.0730206241        4.8692524810
 H         -9.5500006665        2.4288023717        4.3150863559
 O         -0.0162763756        1.9882524618        7.4527601958
 H          0.7086936077        2.5090375528        7.0967951425
 H         -0.8261350987        2.4528076760        7.2190059615
 O        -11.0496330884       -3.7191194475       -1.3727907340
 H        -10.6362219930       -4.0813401922       -0.5758476026
 H        -10.3468704959       -3.5154211821       -1.9969945398
