  222

 H         -0.5425054112       -1.1597996581        0.9180873599
 C         -0.6112510052       -0.5412956743        0.0100749175
 H         -0.5391308392       -1.1969144475       -0.8712436606
 C          0.5103658644        0.5037878339       -0.0094871840
 H          0.3911098459        1.1518924075        0.8600966293
 H          0.3944399220        1.1152669958       -0.9056411638
 O         -1.7891825167        0.2100258092       -0.0077307046
 H         -2.5646581753       -0.3620747638        0.0026734596
 N          1.8637421186       -0.1172780949        0.0059475223
 H          1.9871272139       -0.7237037741       -0.8163106220
 H          1.9839787968       -0.6890763198        0.8531041614
 H          2.5930828887        0.6072400316       -0.0077051384
 O          2.5638912668       -4.8631498766        1.6968828948
 H          2.0756032138       -5.6331320536        1.4072610694
 H          3.4420617115       -4.8876808890        1.2570222568
 O          1.9684020531       -2.1832662768        1.7648372160
 H          1.4866449486       -2.1357480451        2.6218590447
 H          1.9420949899       -3.1194547191        1.5138026174
 O          0.6033826247       -2.1786498046        4.0390600976
 H          1.2141820896       -1.9293763772        4.7365880266
 H         -0.0454053211       -1.4565360487        3.9511642267
 O         -3.8834490319       -1.3073327349       -0.3454610634
 H         -4.5239127599       -1.0610012335       -1.0413901625
 H         -4.4303721344       -1.6548285550        0.3923950235
 O          1.5364174704       -2.0955872790       -1.7394527963
 H          1.2481782625       -2.8517649575       -1.1961132682
 H          0.8331654005       -1.9832842008       -2.4149661751
 O         -0.4542442286       -1.7583451761       -3.4551738395
 H         -1.1805367734       -2.1858599128       -2.9503718032
 H         -0.5958730168       -0.8013634065       -3.3600003482
 O          0.3677629396       -4.1481640445       -0.3265050881
 H         -0.0000521477       -3.7326192195        0.4865058717
 H         -0.3599681088       -4.6783050735       -0.6645727836
 O          2.1386456988        0.6637739195        2.6990088342
 H          2.3658290825        0.0228921730        3.4040520705
 H          3.0048832440        0.9917148746        2.3835783643
 O         -0.7094370207        0.9500275861       -3.2920870516
 H         -0.0123610061        1.1933366592       -3.9255475541
 H         -0.9058646149        1.7449426283       -2.7580488721
 O         -2.3247451414       -2.7801370429       -1.9102820001
 H         -2.8557121956       -2.2155225322       -1.3083199887
 H         -2.2955668350       -3.6407723046       -1.4365763660
 O         -0.8144914685       -3.0692810903        1.7931722237
 H         -1.7651236910       -3.2774784497        1.8401311561
 H         -0.4662761950       -3.1619404208        2.6853688400
 O         -1.1624428003        2.1663791343        4.7620939058
 H         -1.1206486357        2.2369990368        5.7150217271
 H         -0.2742795998        2.4664849064        4.4219489525
 O          1.1659484655        2.8511183994        3.7799876596
 H          1.4820476900        2.0017425258        3.3680323547
 H          0.9123502793        3.4401426186        3.0469442990
 O         -1.3316163082       -0.3478802617        3.7075054410
 H         -1.9710174481       -0.2610461305        2.9850099856
 H         -1.2600058107        0.5262381098        4.1280787215
 O         -3.6159353256        0.1160311403        2.3107877612
 H         -4.1774149215       -0.3423809057        2.9647489222
 H         -4.1922493033        0.3185957931        1.5435732379
 O          1.3180824717        1.1796866763       -5.0639042908
 H          1.3475113883        0.2202309756       -5.3380607583
 H          1.4614982907        1.7035172611       -5.8505833353
 O          0.7890614960        4.7599419038       -2.1366902495
 H          1.3773993180        4.7601561231       -1.3452770723
 H          1.3804565588        4.5173058250       -2.8584249570
 O          2.3856243063        4.3979544302       -0.0344020546
 H          1.6901205822        4.3169196501        0.6499242678
 H          2.6048159380        3.4843460849       -0.3234755699
 O         -1.7351817291        2.6551877312        0.9507656663
 H         -2.3236681104        2.7809370215        1.7173108603
 H         -1.7736419330        1.7003326369        0.7405628079
 O         -3.6090640707        1.2706268476       -1.8446153439
 H         -2.7318849307        1.1958423099       -1.4473365345
 H         -3.5691127781        0.7672276904       -2.6901890716
 O          3.2641717679        2.0255282835       -0.7898740686
 H          4.1951953541        2.3370753092       -0.8017173568
 H          3.1155230984        1.6468248019       -1.6764975558
 O          3.1278805017        0.6957738652       -3.1049921952
 H          3.2514373998       -0.2676527859       -3.2752685978
 H          2.5035474054        1.0114555524       -3.7808059604
 O          4.9316950864       -4.3574192191        0.4764442678
 H          4.8290649832       -3.4650459710        0.8612609018
 H          4.4178691105       -4.3719383315       -0.3487383617
 O         -5.6627339744       -0.9613687792       -2.2923977534
 H         -5.1980081804       -1.4747198950       -2.9968021813
 H         -6.1452376009       -0.2327717930       -2.7117187364
 O         -6.9958995928       -2.7585616868       -0.7924036689
 H         -7.8988699283       -2.4146561725       -0.7095918540
 H         -6.5490235564       -2.1143946300       -1.3805733236
 O         -1.2177873828        3.0968393832       -1.7247698563
 H         -1.2745486864        2.9935536044       -0.7609285100
 H         -0.4801352550        3.7330096198       -1.8954089336
 O          4.5642362703       -1.9432870173        1.6458600845
 H          3.6013124444       -2.0269667644        1.8420581713
 H          4.9702834499       -1.4910874418        2.4120587679
 O          4.6474236575       -0.4098794176       -0.4627703164
 H          4.8601744040       -0.9802251503       -1.2300754039
 H          4.6253289604       -1.0258988666        0.3103187751
 O         -5.6771600959       -2.1190309599        1.4264231140
 H         -6.1995356431       -1.3606720221        1.7490726024
 H         -6.2185410027       -2.5089893714        0.7040715216
 O         -3.3117098830        2.5698408979        3.1489721121
 H         -2.6216368853        2.5769595337        3.8349768807
 H         -3.3904747606        1.6136482470        2.8708651173
 O          0.2912155022        4.2195885643        1.6073842531
 H         -0.3993443397        3.5652136412        1.3706106469
 H         -0.0892296827        5.0591173418        1.2982382116
 O          4.5369550078        1.4230120046        1.7624607530
 H          4.6398075645        1.0082745513        0.8976697903
 H          4.6396141704        2.3925511051        1.6380080204
 O          5.7012703049       -2.0078826430       -2.3046578567
 H          6.2725869797       -1.4099262307       -2.8202556378
 H          6.2630237035       -2.4355654276       -1.6253756994
 O         -5.0863725809        1.1873307828        0.3570622376
 H         -4.9723354956        2.1261131253        0.6203616749
 H         -4.5840060924        1.0844956016       -0.4759171910
 O         -7.6390919368        1.2703294131       -0.2896489312
 H         -7.6813677478        2.2536350715       -0.2761121572
 H         -6.6889939226        1.0856668101       -0.0849382843
 O          3.2682650957        3.8665750304       -3.1710853499
 H          3.6850036438        4.3839858882       -2.4776334376
 H          3.9812875454        3.4128712298       -3.6340659615
 O          3.1578908975       -1.0195847789        4.5451980927
 H          4.0593914510       -0.6732010776        4.5357524341
 H          3.2691713168       -1.9740719053        4.3693276149
 O          5.4909147387        1.9172606707       -3.4123563640
 H          4.6448148268        1.4312248514       -3.2856205368
 H          5.6863183967        2.3640419886       -2.5755730821
 O          7.1905106808       -2.8635374167       -0.2423827028
 H          7.2791977041       -2.3211317554        0.5708771559
 H          6.6840907806       -3.6469527788        0.0221953120
 O         -4.1112319700       -2.3432738232       -3.9086944176
 H         -3.7278784444       -1.5696627134       -4.3442613289
 H         -3.4432812376       -2.6321932414       -3.2536533280
 O         -2.5629127643       -4.9265637141       -0.3768193850
 H         -2.7899236070       -4.6425010551        0.5211174792
 H         -3.4212830048       -5.0767736877       -0.8069844575
 O          5.7769766561        2.9676867228       -0.8495579050
 H          5.7058622094        3.6062794959       -0.1272018765
 H          6.3784270036        2.2598830638       -0.5283688862
 O          6.9985530155        0.7333051529       -0.1105748379
 H          7.6839059879        0.3075856702       -0.6636782217
 H          6.1483262342        0.2737710882       -0.3226782729
 O          5.6483686259       -0.3253445146        3.5345374458
 H          6.5255224810       -0.5834537364        3.2067759097
 H          5.3755295147        0.4417139169        2.9995385596
 O          4.6786154257        4.0799701080        1.4288465858
 H          4.4811494556        4.1997381169        2.3747171564
 H          3.8884779294        4.4016635169        0.9541619181
 O         -4.9483754839       -4.4882566013       -1.6847267680
 H         -5.7408842955       -4.1025556693       -1.2876274695
 H         -4.9281070887       -4.1832740179       -2.5949856237
 O          1.4269716974       -1.4065577771       -5.4523423147
 H          2.2243396370       -1.6456966022       -4.9483957206
 H          0.6755856483       -1.6710834303       -4.8991803693
 O         -7.1634296877        0.0185857247        2.2602873470
 H         -6.7336000119        0.7545638395        2.7237508108
 H         -7.5905691472        0.4043167232        1.4861281732
 O         -4.6708852147        3.7645863384        0.9606785899
 H         -4.1638142520        3.8027926201        1.7772646917
 H         -4.1126884651        4.1428940391        0.2460102718
 O          7.1365255077       -0.1372672145       -3.6279249348
 H          7.3107166938       -0.2516894347       -4.5609376758
 H          6.5776289451        0.6806612590       -3.5521283776
 O         -7.0433135020        3.8420837197       -0.4743237838
 H         -6.3802607792        4.0209295534        0.2060605611
 H         -6.5524029787        3.8201594658       -1.3105838304
 O         -3.4306387508       -3.6773758652        2.0843926207
 H         -3.3164547453       -3.4441676858        3.0287044216
 H         -4.2593407905       -3.2489346075        1.8275006327
 O         -5.3629404749        3.1436328389       -2.6565539167
 H         -4.7224346525        2.5161538175       -2.2617214414
 H         -6.0910409175        2.5741972707       -2.9584078117
 O          3.3805854815       -1.9060309395       -3.6175432895
 H          4.2651703628       -2.1610258735       -3.3144450868
 H          2.7730625163       -2.2208109739       -2.9130434760
 O         -3.3889879756        4.6566279655       -1.2341612012
 H         -4.1200978773        4.5798030102       -1.8548640311
 H         -2.6943656308        4.0388727814       -1.5428345063
 O         -3.0067911919       -2.4938026472        4.4750186750
 H         -2.3104846991       -1.8343012550        4.3352726688
 H         -3.8053923507       -1.9960331513        4.6819783652
 O          3.7734873147        3.7248847362        3.9594417716
 H          4.2403835471        3.1169074476        4.5331156691
 H          2.8276149063        3.4955973511        4.0191956681
 O          7.5929765168       -1.0797712575        1.8028321260
 H          7.3399002015       -0.3181797574        1.2403462230
 H          8.5643341164       -1.0539012099        1.7964543006
 O          3.6380927404       -3.6181038564        3.9192793799
 H          3.1117668285       -4.1200932604        3.2769843300
 H          4.5549906109       -3.8461369596        3.7591564565
 O          8.7162829448       -0.8297059475       -1.4830254595
 H          8.3854719260       -1.7030105461       -1.2245995636
 H          8.3792983312       -0.6420420937       -2.3725572197
 O          2.9539921224       -4.5812992112       -1.3936042600
 H          2.6705156126       -4.5714289799       -2.3150263039
 H          2.1334337356       -4.6208182982       -0.8836704646
 O         -5.9081985726        1.9899260542        3.7973569057
 H         -6.4631000718        2.7447250719        3.9912209478
 H         -5.0145214464        2.3349377743        3.6043458414
 O         -7.2511424706        1.1807706187       -2.9420436060
 H         -7.5145692155        1.1819338282       -1.9908739187
 H         -8.0469836973        1.0264757015       -3.4503861104
 O         -9.1377564315       -1.0632387338       -0.5741751045
 H         -8.6885988198       -0.2102239591       -0.4726630799
 H         -9.8667370323       -1.0732137034        0.0458961686
 O         -3.1444306284        0.2557592946       -4.2560522949
 H         -2.1991342512        0.4136519511       -4.0726048729
 H         -3.4410224014        1.0599956305       -4.7135994041
 O         -1.0318527542        5.8810365798       -0.0842340984
 H         -0.4809024237        5.8972174699       -0.8737105559
 H         -1.9319289887        5.7094624126       -0.3837188210
 O          1.4406269129       -4.1633698146       -3.7873713618
 H          0.5084204655       -3.9340834556       -3.7844289158
 H          1.7861914965       -3.9347507847       -4.6519627141
 O         10.0596561374       -0.4122739537        0.9415872038
 H          9.8549314154       -0.5832262330        0.0117737680
 H         10.3080725691        0.5107072649        1.0017623183
 O         -5.2424813179       -0.7246659245        4.3197775162
 H         -5.5555164305        0.1735270838        4.4923249010
 H         -5.9959173533       -1.2126061536        3.9755163039
 O         -3.6118787737        2.8818631546       -4.7748779216
 H         -4.3153916738        3.1274300341       -4.1480613259
 H         -2.9118605185        3.5278096631       -4.6772171144
