  101

 H          0.4630927076        1.1941025328        0.8323452958
 C          0.5529035761        0.5095402430       -0.0251092077
 H          0.4633421182        1.0989800597       -0.9466436098
 C         -0.5779259333       -0.5149488604        0.0205351875
 H         -0.4518492549       -1.1270258236        0.9278134321
 H         -0.4840892692       -1.1748678656       -0.8448928486
 N         -1.8603253885        0.1647702475       -0.0623309409
 H         -2.6131021662       -0.5138473280       -0.0751527666
 H         -1.9956541839        0.7570092263        0.7508171932
 O          1.7808081027       -0.1833448060        0.0209869107
 H          2.5006908393        0.4507195084       -0.0567171281
 O         -2.0759850844        1.9121333047       -1.9776099173
 H         -1.9549348474        1.1854901899       -1.2697270629
 H         -2.8061535850        1.5946838125       -2.5194458257
 O          4.6125812910        2.6509611759        2.2514172268
 H          5.1513198638        1.9964112240        2.7145868296
 H          4.5007641664        2.2518263366        1.3648099950
 O          2.0811929807        3.0915500861       -0.2346595416
 H          2.8511615694        3.6612096470       -0.2853222761
 H          2.0913400568        2.7280876161        0.6779311238
 O          2.0073256350        2.1813155862        2.3890346578
 H          2.9241183252        2.5058863124        2.5355373915
 H          2.0469472428        1.2455555079        2.6538646321
 O         -3.4836074669        3.3383680888       -0.1375812378
 H         -2.9581894311        2.8943571674       -0.8369768842
 H         -2.8963087390        3.9935269383        0.2467100749
 O         -4.4681756880        1.3994553053        1.5164070792
 H         -5.4313062086        1.5701631514        1.5424668856
 H         -4.0947304076        2.1412213775        1.0013095764
 O         -4.3202173151        0.1802567910       -2.5080066026
 H         -4.4875382687       -0.2205362718       -1.6140780197
 H         -5.0064675876       -0.1595265454       -3.0842158803
 O          1.9698807990       -0.6132168906        2.7020200786
 H          1.9136762621       -0.5320814683        1.7301235246
 H          1.1039019200       -0.9362612360        2.9984490360
 O         -0.5619771665       -1.5386840159        3.3981125251
 H         -0.5870700066       -1.7326435578        4.3356322272
 H         -1.1929200668       -0.8025720001        3.2560697324
 O         -0.7737240071        2.5780212193        2.3045710299
 H         -0.8179318996        3.0667591224        1.4636304353
 H          0.1603602975        2.5919035676        2.5602979877
 O         -0.5954906614        3.7209341523       -0.2155714664
 H          0.3748068665        3.6645159882       -0.2602028810
 H         -0.9200899254        3.2419005342       -0.9859799146
 O          4.0710559150        1.2033990444        0.0365162127
 H          4.5249015784        0.3606584809        0.2265484582
 H          4.5187197164        1.5737457907       -0.7604838580
 O         -2.3285095616        0.4517116854        2.9554829383
 H         -3.2045007686        0.7572029000        2.6647938689
 H         -1.7548988000        1.2386003923        2.8597635726
 O         -4.8485444325       -0.7337743750       -0.1044296555
 H         -4.4428825004       -1.4398162141        0.4235225774
 H         -4.7760777084        0.0611251566        0.4689204343
 O          2.5203106398        1.3670423114       -2.5610245035
 H          2.3556545516        1.9600327089       -1.8102814298
 H          1.6643128398        1.1503630467       -2.9560716375
 O         -0.0837705154        0.4860190739       -3.2916415404
 H         -0.7539011627       -0.2122585856       -3.4447955348
 H         -0.6181271530        1.2220320924       -2.9530782962
 O         -2.0521768545       -1.3521882263       -3.2210733706
 H         -2.0318176047       -2.0076914102       -2.5055570723
 H         -2.8316747927       -0.8039586210       -3.0406122031
 O         -2.2321134923       -3.0723880879       -1.0416892030
 H         -1.6681041109       -3.2797128576       -0.2802730582
 H         -3.1094385311       -3.3845010560       -0.8154583807
 O         -0.7208896756       -3.4789973098        1.3289921044
 H         -0.5538954179       -3.0146169293        2.1621634003
 H          0.1278181323       -3.4409561380        0.8454362395
 O          1.5664735510       -2.9344385870       -0.0838565512
 H          1.6752492834       -1.9656032383       -0.0732949236
 H          1.4425803685       -3.1395626553       -1.0171230597
 O          3.5365501420       -2.7775683861        1.9382237118
 H          3.1055212241       -2.0636697024        2.4399785264
 H          2.8751344313       -3.1116124444        1.3166355643
 O          1.0700161396       -2.0919620758       -2.7510949984
 H          0.8093725563       -1.1602626795       -2.8271494545
 H          0.5179206903       -2.5648300219       -3.3758957082
 O          5.0293571027       -1.3276396612        0.2709718865
 H          4.5278237494       -1.4340770111       -0.5569517311
 H          4.5853388110       -1.9273328859        0.9138521235
 O          6.1221319502        0.2753106747        2.4095267871
 H          5.7536135028       -0.3704302408        1.7924451675
 H          7.0599300306        0.3198037958        2.2223254482
 O          3.6225437944       -1.1251934403       -2.1209683060
 H          3.2920126254       -0.2097567498       -2.2170784294
 H          2.8841552283       -1.6848855685       -2.3921162119
 O          6.2856483098       -0.5007112912       -2.3902022509
 H          6.5543331192       -0.7925695909       -1.5149199936
 H          5.3977234673       -0.8726560866       -2.5209078961
 O         -7.0307502668        1.5985752984        0.7862106270
 H         -7.3865481688        0.7287602027        0.5974446771
 H         -6.7374388749        1.9657427290       -0.0742482442
 O         -3.2705768440       -2.1179093216        1.6418777598
 H         -2.4991336807       -2.6973769721        1.6007808307
 H         -3.0361546602       -1.3878455967        2.2268526745
 O         -5.7705239279        2.4387105355       -1.4704071634
 H         -5.1225609095        3.0131451060       -1.0397221890
 H         -5.2595669661        1.7264726529       -1.8818195732
 O          5.2479976559        2.0061269859       -2.2002298273
 H          5.7849475180        1.2064359336       -2.3726382375
 H          4.4818966638        1.9430419975       -2.7815639271
