  147

 H         -0.5425054107       -1.1597996579        0.9180873538
 C         -0.6112510041       -0.5412956729        0.0100749118
 H         -0.5391308386       -1.1969144471       -0.8712436659
 C          0.5103658641        0.5037878345       -0.0094871902
 H          0.3911098460        1.1518924081        0.8600966241
 H          0.3944399217        1.1152669958       -0.9056411673
 O         -1.7891825170        0.2100258106       -0.0077307092
 H         -2.5646581752       -0.3620747630        0.0026734555
 N          1.8637421184       -0.1172780983        0.0059475409
 H          1.9871272136       -0.7237037710       -0.8163106318
 H          1.9839787963       -0.6890763240        0.8531041560
 H          2.5930828885        0.6072400323       -0.0077051430
 O          2.6335866514        2.5768176023        0.4246286315
 H          3.5621989083        2.8914377034        0.3471360016
 H          2.3286304989        2.8406200969        1.3058404899
 O          1.4099034025       -2.1696711830        1.7715654150
 H          2.1268796553       -2.4770624557        2.3693581522
 H          0.6350869977       -2.0352815652        2.3478879256
 O         -0.8933167606       -1.7591183162        3.1978546977
 H         -1.5166293893       -2.3497717567        2.7289196669
 H         -1.2679172551       -0.8632815035        3.1532243532
 O         -4.3713586941        1.9940800418        1.4198275494
 H         -4.0581199012        1.8801024964        0.4929409738
 H         -3.7604889968        1.4921948826        1.9777466871
 O          2.2799903234       -1.8434051139       -2.0031115532
 H          1.9005797031       -2.6378425765       -1.5672584549
 H          1.6466257119       -1.5078388512       -2.6622329333
 O          0.6153274445       -0.3183343962       -3.4886701358
 H          1.3875840980        0.2803820093       -3.5733877981
 H         -0.1076384629        0.2928949002       -3.2175971637
 O          2.5553793843        1.4684596743       -3.1078739740
 H          2.0037547177        2.1909380510       -2.7639812514
 H          3.0968500706        1.1800123191       -2.3455856493
 O         -2.0536217093        0.7482043023        2.6497982763
 H         -1.6189838541        1.6233669110        2.7345164930
 H         -1.9720564317        0.5541367024        1.6954406949
 O          2.0301616537        0.4541589177        2.8198682187
 H          1.7342205375       -0.0537763557        3.6042243561
 H          1.8978283804        1.3916141006        3.0132378156
 O          4.4516504556       -1.6030812909        0.3008024961
 H          5.3933849217       -1.8754308906        0.2920766979
 H          3.9742422362       -2.4470544580        0.4403287227
 O         -2.5257484593       -3.0741483138        1.4646367425
 H         -3.0568936854       -2.2927094177        1.1901266521
 H         -2.0555322870       -3.3642091049        0.6694130725
 O         -4.0334676088       -0.9872774227        0.8702419705
 H         -4.8712852961       -1.2249433236        0.4177126403
 H         -4.2830002026       -0.7385517512        1.7798584188
 O          1.2070465641       -3.6962865424       -0.4154846707
 H          1.1946447691       -3.1622938328        0.4095405967
 H          0.2830546481       -3.9017971318       -0.6176663269
 O         -1.0320101563        3.1508644816        2.1776292161
 H         -1.7665380541        3.7540525919        2.4149600345
 H         -1.0671620964        3.1533095797        1.1926869454
 O         -1.4239291833        3.3127210067       -0.4530076477
 H         -2.1037522360        2.7778367507       -0.8782760928
 H         -0.6305793879        3.2640536101       -1.0117791161
 O         -3.8445659199        1.6390340194       -1.1725328250
 H         -4.7128419419        1.9036819743       -1.5086194383
 H         -3.7478989080        0.6993037535       -1.3834545682
 O         -1.4190533271        1.1746076936       -2.6631644137
 H         -1.6728754280        0.9192445709       -1.7637521643
 H         -2.2056784766        1.0599129789       -3.2134884747
 O         -3.4214004395       -1.1786210863       -1.8383262794
 H         -2.7423792911       -1.2404203162       -2.5277692937
 H         -3.6692797316       -2.1124046671       -1.6635276364
 O         -1.3401184797       -2.1418184115       -3.4195543699
 H         -0.5841220632       -1.5424232956       -3.5658013480
 H         -1.5550257282       -2.5254694240       -4.2698999209
 O          1.1358669640        3.3149121862       -1.6002784642
 H          1.3280385487        4.2304295006       -1.8044342273
 H          1.6953696544        3.0773824914       -0.8132312264
 O          4.4927060155       -0.4326942674        2.6391043785
 H          4.4266369791       -0.8424451030        1.7416205940
 H          3.6206548555        0.0087940209        2.7775917564
 O         -6.4187483995       -1.5653375708       -0.1350348736
 H         -6.8144040820       -0.7761522116        0.2649995450
 H         -6.4462031692       -1.4265646407       -1.1007233820
 O          4.1345737452        0.7741363277       -1.0356489165
 H          4.4214748651       -0.1099043823       -0.7534155541
 H          4.9192751855        1.3169011214       -1.1493675854
 O          6.3485371841        1.1654754978        1.3350572991
 H          6.5402264935        0.5964362704        0.5735958846
 H          5.6687379427        0.7118114329        1.8630177626
 O         -6.7892449881        0.9813801312        0.9503183698
 H         -5.9014235850        1.3107425447        1.2391995846
 H         -7.4071976790        1.2446170570        1.6328006705
 O          6.8888606877       -0.3559921975       -1.0134159608
 H          6.2531036548       -0.8078552477       -1.6091668254
 H          7.3662627931       -1.0687630260       -0.5706688185
 O          5.0038371431       -1.5243594575       -2.5858638613
 H          5.0705700595       -0.8298729075       -3.2778149601
 H          4.0553513641       -1.5954221386       -2.3832546829
 O          5.1837391561        3.3308826295        0.2357836715
 H          5.6598880308        2.6596370042        0.7692501714
 H          5.6018290526        3.3087599657       -0.6312857173
 O          3.7246633191       -4.1222159598        0.7924721814
 H          2.8496460910       -4.3216184428        0.4365196383
 H          4.3511453021       -4.3046872236        0.0665644272
 O         -4.4098744405       -0.3753241402        3.4745603585
 H         -4.4856621985       -0.9805301230        4.2125252341
 H         -3.5414758828        0.0531757297        3.5398246524
 O         -6.5490036496        1.8161935363       -1.6098845844
 H         -6.7400400554        1.5570691632       -0.6828969082
 H         -7.2449670368        2.4118603593       -1.8873052979
 O          3.4145826302       -2.8635411032        3.3728619274
 H          3.8036671548       -3.5256507471        2.7890732912
 H          3.9639238820       -2.0599335142        3.3036844897
 O          5.0960696379        0.7117120556       -4.0575151705
 H          5.6026243322        1.3108070010       -3.4900288163
 H          4.1907920961        1.0508241201       -4.0607614031
 O          6.5483130653        2.1077987106       -2.0159644844
 H          6.8990073421        1.2636137467       -1.6703029246
 H          7.3063538894        2.6172443308       -2.3010318858
 O          1.3620366023       -1.2474614634        4.7865827512
 H          0.5025855703       -1.5968096367        4.5162629855
 H          2.0012458920       -1.9619728725        4.6909324049
 O          7.0988066783       -1.2075503442        3.0349688472
 H          7.5834720883       -0.3860214625        2.9178108958
 H          6.1754953188       -0.9465265142        3.1792547320
 O         -3.3419001608        4.4634340680        2.0579973525
 H         -3.8736244540        3.6651998434        1.8821143257
 H         -3.2320986631        4.9034503760        1.2125549997
 O         -1.4701292991       -3.6642512910       -1.1049603557
 H         -2.2933054653       -4.1418854642       -1.2712868062
 H         -1.3509901533       -3.1215425222       -1.9036796030
 O         -4.1599926407       -3.7613440376       -1.6731643053
 H         -4.8427757540       -3.9531783697       -2.3161455902
 H         -4.5560053478       -3.9559770246       -0.7838490355
 O         -5.1307647603       -4.0327414949        0.7456072319
 H         -4.3606462188       -3.8346678955        1.2998745932
 H         -5.7320384917       -3.2781163889        0.7736443549
 O         -5.9210046503       -0.6554348191       -2.6940890526
 H         -5.0036719254       -0.8073696293       -2.3854307590
 H         -6.1759116026        0.2379154027       -2.4134677923
 O         -3.7510669341        0.6293897835       -4.1513191601
 H         -4.5839236065        0.1586229542       -4.0063288444
 H         -3.8947253193        1.2489241892       -4.8658685494
 O          1.5326815214        3.1817024354        2.8940436742
 H          0.5736886549        3.2392525609        2.6855930511
 H          1.7378178244        3.9035182797        3.4878572510
 O          6.9836498050       -2.4424163907        0.6869288694
 H          7.1203951194       -2.0936580369        1.5996899070
 H          7.0653460125       -3.3954929577        0.7209869920
 O          5.1883509286       -4.0429897028       -1.4794258568
 H          5.3179201061       -3.1462425193       -1.8312875414
 H          4.6908974469       -4.5058853907       -2.1537713905
