12

H 0.293705000 -1.266223000 0.892303000
C -0.180490000 -0.829943000 0.000000000
H 0.293705000 -1.266223000 -0.892303000
C 0.000000000 0.685723000 0.000000000
H -0.447896000 1.127737000 0.889152000
H -0.447896000 1.127737000 -0.889152000
O -1.575614000 -0.989175000 0.000000000
H -1.802230000 -1.925331000 0.000000000
N 1.471341000 1.069487000 0.000000000
H 1.955062000 0.703688000 -0.826533000
H 1.955062000 0.703688000 0.826533000
H 1.588952000 2.087235000 0.000000000
