  282

 H         -0.5425054112       -1.1597996585        0.9180873604
 C         -0.6112510051       -0.5412956740        0.0100749184
 H         -0.5391308395       -1.1969144470       -0.8712436600
 C          0.5103658647        0.5037878337       -0.0094871840
 H          0.3911098457        1.1518924072        0.8600966290
 H          0.3944399221        1.1152669957       -0.9056411628
 O         -1.7891825170        0.2100258093       -0.0077307039
 H         -2.5646581753       -0.3620747641        0.0026734602
 N          1.8637421187       -0.1172780950        0.0059475208
 H          1.9871272140       -0.7237037739       -0.8163106223
 H          1.9839787968       -0.6890763206        0.8531041599
 H          2.5930828886        0.6072400318       -0.0077051378
 O          2.0056978794       -0.9984435395        2.4625541521
 H          1.2985459544       -0.4272245657        2.8156626715
 H          1.7443566935       -1.9157536438        2.6850150069
 O          1.6460667030       -1.8806678430       -2.1466408343
 H          0.8692833199       -2.3149969997       -2.5468393686
 H          2.4055974683       -2.4603509093       -2.3775504418
 O          3.0824121021        1.5428076662       -1.8238073125
 H          3.8254621370        2.0519792688       -2.1945341305
 H          2.5678570462        1.2234705961       -2.5933580204
 O         -0.2087385032       -2.9879465912       -3.7867217311
 H         -1.1334014415       -3.2479588776       -3.6262213206
 H         -0.2457975683       -2.2794887376       -4.4516723678
 O         -4.2581270435       -0.5167985146       -0.4692941381
 H         -4.3141293641        0.2556542566       -1.0512466034
 H         -4.7733591884       -0.2827225606        0.3316798208
 O         -0.1990074278        0.2746965003        3.2949256007
 H         -0.6627567860        1.0907585639        3.0376420988
 H          0.0927996519        0.4413347156        4.2149391900
 O          1.9398959574        0.1533597053       -3.8079203477
 H          1.7815249936       -0.5975144790       -3.1866987720
 H          2.7536496821       -0.1039673639       -4.2688628548
 O         -1.7646444579        1.5218438777       -2.6418810981
 H         -0.8442222863        1.7944525374       -2.7973914641
 H         -1.8027683933        0.5875664490       -2.3626615598
 O         -1.0985890614       -5.1788778827       -1.5185872726
 H         -0.3639239634       -5.5144731980       -2.0392201377
 H         -1.7179884200       -4.7564933100       -2.1324591539
 O         -1.3455008326        2.9297129817        0.3018167984
 H         -0.4719821677        3.1272400607       -0.0958746150
 H         -1.6068517883        2.0329622371        0.0365086588
 O         -1.1070276164        2.8162634288        2.8958336874
 H         -1.2005746032        2.8765404774        1.9138000796
 H         -1.8700629455        3.3085158293        3.2200750984
 O          0.5728175358        2.7715871465       -3.0913323650
 H          1.3477896281        2.8327882213       -3.6646862960
 H          0.8792761030        3.0357534204       -2.1949725879
 O         -3.2178105722        0.9401104177        2.6534522214
 H         -4.0642221318        1.0929140246        3.1080621103
 H         -3.2931750944        1.4322474042        1.8184272158
 O         -3.0070798245        3.6610452733       -1.6794395363
 H         -2.3799191945        4.2815977236       -2.1102844283
 H         -2.7049409370        2.7872821567       -1.9945674480
 O          4.5369032392       -0.6036958976       -1.4495342473
 H          4.1626370563       -1.1584975651       -0.7473725115
 H          3.9941296815        0.2194831744       -1.5051527017
 O         -2.7000551147       -2.7744757752       -0.5103557533
 H         -3.3373784498       -3.5121002111       -0.5485512680
 H         -2.9510876688       -2.2953008861        0.3047846365
 O         -5.0313249739        1.4678451787       -2.1110097727
 H         -5.8982250901        1.1678239856       -1.7823539886
 H         -5.1494785561        2.3752624433       -2.4481376560
 O          3.0301710110        2.2874687315        0.8114747332
 H          2.5485170046        2.6013707096        1.6031725439
 H          3.6403752737        3.0117750488        0.5585657510
 O          1.0968692858        3.4197633742       -0.6001830411
 H          1.8497299710        2.8726231072       -0.2868086481
 H          1.2499352893        4.2980843747       -0.2035982456
 O          1.5709618031        3.2071775517        2.8574478918
 H          1.9244161805        2.5288733273        3.4684094102
 H          0.6012913296        3.1514902903        2.9420652173
 O         -2.2169606207       -1.1123467624       -2.6712336572
 H         -2.4283646176       -1.7508615407       -1.9664170035
 H         -3.0468567696       -0.9432821729       -3.1530664294
 O         -0.6609390461       -3.7932252718        0.8782020676
 H         -1.2519861811       -4.2812588203        1.4822199860
 H         -1.2543575439       -3.4534172866        0.1766407815
 O         -5.7013794661        1.2817982034        3.7349319246
 H         -6.1612251015        0.8219718674        4.4392989238
 H         -5.9292957815        0.7974321027        2.9057799511
 O         -3.2206344810       -1.5943633671        1.8941878132
 H         -2.5389592582       -1.9839891955        2.4789068534
 H         -3.1538704697       -0.6291440784        2.0659630319
 O         -4.1220693092        2.5152924684        0.5953686840
 H         -3.7452461523        2.9135599956       -0.2050011114
 H         -3.9523565107        3.1615599212        1.3124105143
 O          3.3700769490       -2.4071377388        0.2511626737
 H          3.6851600808       -2.5422213431        1.1690940769
 H          2.6950856856       -3.0968581538        0.0614367208
 O         -6.7624674725        2.4511466103        0.4034531927
 H         -5.7757714679        2.5263598954        0.3468317129
 H         -7.1226859303        2.6360181869       -0.4853417309
 O          3.6739390601       -3.3904202950       -3.0785832343
 H          4.3877141176       -3.5755791996       -2.4437211405
 H          4.0142552830       -2.7170172492       -3.6895519289
 O          4.4257621847       -0.9658357791       -4.1191917350
 H          5.2460105147       -0.6330012054       -4.4934269713
 H          4.5420261842       -0.8598436283       -3.1506944680
 O          4.3367908275        0.0451174555        1.5391497277
 H          4.2192860468        1.0086434541        1.4834822177
 H          3.6280829016       -0.2967131913        2.1039174834
 O          5.2567422635        2.5122113966       -3.0870505405
 H          5.7889319215        2.9742826031       -2.4167147375
 H          5.7762170394        1.7179885070       -3.3241357017
 O          6.6043087841        0.6979815505       -0.4369235834
 H          6.6506753802        0.4187212692        0.4880111636
 H          5.9113733096        0.1486527185       -0.8622366596
 O         -7.2130271668        0.0132973054       -1.4025055663
 H         -7.4528457480        0.2123315781       -2.3308334500
 H         -6.9642883706       -0.9223528614       -1.3945445816
 O          6.7704755108       -0.4680471543        2.1831120952
 H          6.9037062867       -1.3892164644        1.8958695940
 H          5.8091808669       -0.2783469219        1.9958908084
 O         -5.8633623537       -2.4903549164       -1.1292575801
 H         -5.5355209805       -3.3422370649       -0.7923347010
 H         -5.1756610706       -1.8226439860       -0.8798723097
 O         -3.5421189877        4.1633707685        2.6781395242
 H         -4.4889119139        4.3194807656        2.8519909509
 H         -3.2103341322        4.8940820921        2.1279047460
 O         -5.0614363519       -2.7689110305       -3.6657247774
 H         -5.3945145027       -2.7045462650       -2.7432877662
 H         -4.8487520310       -1.8597313730       -3.9413667170
 O         -5.1858336238       -1.8521222294        3.7204937476
 H         -4.6561827902       -1.5894907926        2.9386270421
 H         -6.0627287121       -1.4383092084        3.6525175930
 O          4.9794147161        2.1139938917        4.5806061654
 H          5.2187797237        2.3729340469        3.6669443518
 H          5.5123917901        1.3264720397        4.7743676965
 O         -5.2535106296        4.0764353406       -2.9001638799
 H         -4.9005684903        4.1941053289       -3.7992932903
 H         -4.4173931222        4.0426765426       -2.3656673547
 O         -6.0094904789        0.0238262022        1.4137415570
 H         -6.4276460995        0.7289500768        0.8906011943
 H         -6.5872241962       -0.7754117185        1.3475278919
 O          1.8621131839        5.3814208690        1.1155572228
 H          2.8097323858        5.4185878390        0.9468196420
 H          1.7466123121        4.7996621844        1.8827371942
 O          1.4113486735       -5.0048519200       -2.9782709617
 H          0.8472742234       -4.3492614450       -3.4250926541
 H          2.3172557477       -4.7607054909       -3.2094661126
 O          4.3587249833        4.4601197859        0.0007746734
 H          5.2185362129        4.1714112615       -0.3487514046
 H          3.8526776397        4.7765224677       -0.7727077971
 O          5.6384376065        2.6508137545        2.0095991293
 H          6.5961883547        2.4662581790        1.9193127398
 H          5.5050937212        3.5603747010        1.7380554924
 O         -1.3566889019       -2.1659677613        3.7281476033
 H         -0.9242549995       -1.3028004962        3.5680379084
 H         -1.9371591763       -2.0151283665        4.5117659955
 O          4.4411579185       -2.9368694547        2.6634550319
 H          4.1523358789       -2.3197609031        3.3696888756
 H          4.0577542450       -3.7960031048        2.8801799445
 O          6.8123368623       -3.0444842917        1.3276364222
 H          6.4341752611       -3.3038345251        0.4631372222
 H          6.0691029517       -3.1476029702        1.9492225949
 O         -4.6358372144       -4.5819412051        0.0050866489
 H         -4.0478324840       -5.3723433195        0.0070361518
 H         -4.8421219140       -4.4313659371        0.9432554223
 O         -2.4666984605        5.4491387630        0.5093812414
 H         -3.3371281982        5.4893662547        0.0877591679
 H         -2.1352176836        4.5501068873        0.3284586884
 O         -3.1354346258       -1.5244861285        5.5537141325
 H         -3.9607772130       -1.6488985388        5.0557874668
 H         -2.9817396877       -0.5683599812        5.6091795803
 O         -0.5402208625       -0.4900160961       -4.8446858117
 H          0.3083180036       -0.0994586295       -4.5746808155
 H         -1.0689115395       -0.6112798407       -4.0389350779
 O         -4.3967643599       -0.1827972743       -4.0743817665
 H         -3.8401762075        0.3378809652       -4.6873147185
 H         -4.6321622026        0.4381657207       -3.3480516270
 O          6.6608092768        3.2949792702       -0.8936519721
 H          7.5716402362        3.5517502814       -0.7459132832
 H          6.6007440980        2.3428700845       -0.6287950995
 O          5.3786562230       -3.6643124685       -0.9101901261
 H          4.6645219885       -3.1000464548       -0.5206587792
 H          5.1181947362       -4.5615964974       -0.6121713657
 O         -6.2337220393        3.8483471859        2.8120733572
 H         -6.0921623870        3.0179427393        3.2963187022
 H         -6.4708697890        3.5762162489        1.9142472183
 O          6.8424377215        0.3695150317       -3.6167653152
 H          7.7382467208        0.6493598602       -3.8056285793
 H          6.9268941359       -0.3872060755       -2.9947968177
 O         -0.0949073689        6.1245193030       -0.8042074303
 H         -0.9488271814        6.0771365229       -0.3393364652
 H          0.5603317000        6.2323017311       -0.1045970185
 O          1.6777330215       -4.3748319671       -0.3551403786
 H          0.7872380166       -4.2903722573        0.0307876330
 H          1.5409677288       -4.6127180058       -1.2943959531
 O         -1.1221216184        4.9091212630       -3.0799605839
 H         -0.7121011447        5.4881743889       -2.4203756524
 H         -0.5105326188        4.1563306860       -3.1990181458
 O          8.2299467337        1.9003714224        1.7991024120
 H          8.7526905461        1.7250669137        0.9936432172
 H          8.0105504629        1.0273885145        2.1494386786
 O          7.2092046878       -1.7778563242       -2.0568437391
 H          7.8901241843       -1.7417497669       -1.3666543197
 H          6.5626563875       -2.4339115712       -1.7696081283
 O          2.7874726118        5.2691529625       -2.0677923306
 H          2.7607830654        4.7099818635       -2.8596313927
 H          1.9163234948        5.6568322742       -1.9516419940
 O         -2.7039398769       -6.3514324669        0.3200319909
 H         -2.0358202601       -6.0208451167       -0.3113206347
 H         -2.3848666486       -6.1399048509        1.2024882680
 O          0.9622909272       -3.3682764371        2.9264467780
 H          0.3464339646       -3.0680282838        3.6149161946
 H          0.4182454019       -3.4855575392        2.1213304840
 O         -2.7315472297       -4.0522543198       -3.4939812523
 H         -2.8211665257       -4.7728369036       -4.1176231610
 H         -3.5918381470       -3.5660933625       -3.5305522278
 O         -2.3705452935        1.1288401527        5.2732376951
 H         -2.4413304845        1.1286635668        4.2995677893
 H         -2.7745124734        1.9430545174        5.5727554991
 O         -2.5572060569        1.4092741579       -5.1920830604
 H         -1.8666387092        0.8425900695       -5.5613979101
 H         -2.2877230465        1.5465781339       -4.2552944473
 O          2.9986869845        3.4889256352       -4.2273420216
 H          3.8651014380        3.1518925540       -3.9275111881
 H          3.1092285652        3.7704553276       -5.1342392519
 O          0.3364887355        0.5508352071        5.9093937540
 H         -0.6106618664        0.6994539066        6.0345941565
 H          0.4967650722       -0.4076462701        5.9716707444
 O          4.0341730329       -5.6154780740        0.2920722635
 H          3.9589302478       -5.5548670078        1.2525348283
 H          3.1545923855       -5.3573548830       -0.0333626633
 O         -7.5726897175       -2.0796540726        1.0706440012
 H         -7.1570774707       -2.4539285567        0.2765046378
 H         -8.3565167899       -1.5881869915        0.7477041717
 O         -9.3813533066       -0.3087313730        0.1424875875
 H         -9.4448651990        0.3351274647        0.8599485472
 H         -8.6804690459        0.0297214602       -0.4537348257
 O         -3.3661006110        4.0800019441       -4.8067800508
 H         -2.5855454594        4.4764334031       -4.4016909398
 H         -3.0940314958        3.2209162709       -5.1567205798
 O          2.5750927358        1.1892703266        4.3337053906
 H          3.4575267991        1.6134910045        4.5224923978
 H          2.0469056361        1.2027150947        5.1400247806
 O          9.0141649689       -1.9345565615        0.0665622475
 H          9.7214128844       -2.5693469663       -0.0500008078
 H          8.3634081897       -2.3498520185        0.6560454270
 O          9.2727165866        0.9060831534       -0.5467259634
 H          9.5699027666        0.0229257424       -0.3055654246
 H          8.3327096229        0.7904832490       -0.7768135607
 O          2.9040411208       -5.1901479797        2.8665319904
 H          2.5038923705       -6.0584138947        2.8761629563
 H          2.1590819079       -4.5535281087        2.9047647533
 O         -5.0036908868       -4.3019428800        2.7176384313
 H         -5.1223161418       -3.4222132717        3.1498743160
 H         -5.6590032408       -4.8880814349        3.0922687780
 O         -7.7481642594       -1.9735102723       -4.0868624259
 H         -6.8969853449       -2.4334745906       -4.1378888132
 H         -8.1497494414       -2.2308617917       -3.2418298934
 O          6.2782397088       -0.3249242549        4.7719077472
 H          7.0896235885       -0.4397295905        5.2623237919
 H          6.5183765387       -0.3959038177        3.8138082255
 O          3.6999794037       -1.2658303904        4.6448315705
 H          4.5912403765       -1.0098691977        4.9276799447
 H          3.2637166821       -0.4284612191        4.3721921943
 O         -8.6233488387        1.4942903857        2.1555450234
 H         -7.9799278552        1.9106032028        1.5493002411
 H         -9.0189250425        2.2048091144        2.6604458126
 O          1.1512667185       -2.0189975254        5.4520573809
 H          1.1706276548       -2.7809923530        6.0282085087
 H          2.0714974942       -1.8416590826        5.1889290104
 O         -8.8539895347       -2.4848008267       -1.5857448591
 H         -9.3064747913       -3.3201051206       -1.4742143521
 H         -9.4056382420       -1.8019802421       -1.1843322603
 O         -2.2894272055       -4.7381008632        2.7984212485
 H         -1.9818504966       -4.0335065420        3.3812128559
 H         -3.2579822926       -4.6417879769        2.7608016101
 O         -7.7370331984       -0.7751449812        3.5696472315
 H         -8.1021333914        0.0217357271        3.1496297430
 H         -8.0507549681       -1.5134712302        3.0386316991
 O         -7.6216602537        2.9374311337       -2.1221354214
 H         -6.9408897332        3.5072735762       -2.5139706747
 H         -7.8781723599        2.3155156058       -2.8122109996
 O         -7.4019561215        0.6447565744       -3.9889040227
 H         -6.5484037926        0.7561613682       -4.4193378678
 H         -7.6669223742       -0.2808395968       -4.2006046151
 O         -5.1933634532        5.1155436657       -0.1529145167
 H         -5.9089168634        5.5114176676        0.3449009393
 H         -5.4807326665        5.0404523181       -1.0695219305
