  131

 H          0.4630927076        1.1941025328        0.8323452958
 C          0.5529035760        0.5095402431       -0.0251092077
 H          0.4633421182        1.0989800596       -0.9466436098
 C         -0.5779259333       -0.5149488604        0.0205351874
 H         -0.4518492549       -1.1270258237        0.9278134322
 H         -0.4840892691       -1.1748678657       -0.8448928486
 N         -1.8603253884        0.1647702475       -0.0623309410
 H         -2.6131021662       -0.5138473280       -0.0751527665
 H         -1.9956541839        0.7570092262        0.7508171934
 O          1.7808081026       -0.1833448059        0.0209869108
 H          2.5006908393        0.4507195084       -0.0567171280
 O          4.0913727054       -0.3355630873        3.1174447235
 H          3.1433165995       -0.5922460413        3.1365371328
 H          4.1184783915        0.5854297882        3.4777818836
 O          4.3802435937        0.4528202926        0.5562644547
 H          4.1736208746        0.1105056336        1.4533508731
 H          5.0550973637       -0.1771957117        0.2023267614
 O          1.6082731601       -1.0486650917        2.5898381745
 H          1.4196171362       -2.0111490734        2.4960954557
 H          1.6992007121       -0.7394275657        1.6658835166
 O         -1.6398781784        2.1661477213       -1.8572621681
 H         -2.5201187427        2.4593904834       -2.1611301149
 H         -1.7858553297        1.3737131667       -1.2704584907
 O         -2.1320388613        2.2456166659        1.9850132497
 H         -1.4799323950        1.8342922595        2.5772372498
 H         -1.6219001171        2.8813504648        1.4364365192
 O          1.6908686853        2.9853912360        2.7111663464
 H          1.8245201071        3.0076219302        1.7370562392
 H          1.3558968353        3.8517521444        2.9470175135
 O         -0.0862642273        0.9361039878        3.3581335216
 H          0.4799932962        0.1648575780        3.1637675658
 H          0.5230107297        1.6905778714        3.3376255465
 O         -0.7027831226        3.6914067566        0.2361017965
 H          0.2620814180        3.6922615450        0.1720804762
 H         -1.0197973669        3.2837932357       -0.5918872474
 O         -4.3480972804        2.2633097434        0.0757715275
 H         -5.1187735741        2.0939978997        0.6636975407
 H         -3.5958476072        2.4303440622        0.6538943949
 O          1.1930371627       -3.5419211022        1.8154053606
 H          0.2339878791       -3.6182607803        1.9691903393
 H          1.2935928242       -3.4422115967        0.8483714452
 O         -4.1480122994        0.4075358061        2.6743461003
 H         -3.6223223133        1.1902135746        2.4551917563
 H         -3.5152972361       -0.1653866360        3.1599539144
 O         -4.8830391797       -1.3699140724        0.7942014692
 H         -4.6807981996       -0.9325495050       -0.0628710105
 H         -4.6512487185       -0.7036313285        1.4780819244
 O         -2.7280500007       -2.7723657484       -0.3604687497
 H         -2.9240770765       -3.0447611063       -1.2804082515
 H         -3.5884465665       -2.6174420585        0.0501516541
 O         -1.4983499978       -3.1703039694        1.9944808432
 H         -1.7751054529       -3.0471355085        1.0648640554
 H         -2.2874105725       -3.5548960042        2.4140705903
 O         -4.4310862744       -0.0414446219       -1.4767748834
 H         -4.3537908747        0.8473119510       -1.0857131870
 H         -3.6625799451       -0.1786399817       -2.0630709049
 O         -2.3673961660       -0.6514462964       -3.1591813204
 H         -1.9614914701        0.0166042935       -3.7282932133
 H         -1.6329915530       -1.1650830006       -2.7913688131
 O          1.6727690867       -2.8350784592       -0.8047660228
 H          2.5911508001       -3.0477276922       -1.0180163836
 H          1.6879175422       -1.8816895564       -0.6044886511
 O          4.4094200752       -2.4996840560       -0.7443901437
 H          4.2833649918       -2.7365753772        0.1967030207
 H          5.3331895013       -2.2238474697       -0.7939044769
 O         -0.7145939654        1.3305941842       -4.1670574942
 H         -0.9626322382        1.7202635049       -3.2861355431
 H         -0.5490283969        2.0699767377       -4.7508549937
 O          3.9778845601       -0.6292867491       -2.8331867626
 H          3.0491693967       -0.6063877787       -3.1076603339
 H          4.0548844434       -1.3185976000       -2.1576119447
 O          1.2493375977       -0.3321445033       -3.3291500219
 H          0.5949171429        0.2203373474       -3.7969994218
 H          0.7920119433       -1.1639217418       -3.1485921605
 O          2.1067571787        3.2534135733        0.0996369858
 H          2.9682933799        3.7126568563        0.0624298846
 H          2.0081775624        2.8558406297       -0.7912595379
 O         -2.1466755713       -1.0406690107        3.6741395728
 H         -1.7946927328       -1.7322135127        3.0826246736
 H         -1.4521077102       -0.3794763512        3.7766906360
 O         -6.4753780279        1.5997896917        1.5389674449
 H         -5.9940193158        1.2030520926        2.2748910097
 H         -6.9629000026        0.8631100983        1.1107223859
 O          2.1507271973        2.1547569705       -2.3416336262
 H          3.1150545200        2.1663179981       -2.4472997080
 H          1.8600533560        1.2880277742       -2.6617328024
 O          4.8230541351        1.6917122333       -1.8949964892
 H          4.6789232744        0.8628864752       -2.4089097519
 H          4.5718771406        1.4325688163       -0.9953285772
 O          4.1810035152        2.2456621705        3.6338066995
 H          4.8160261679        2.5701755933        2.9787404477
 H          3.3028072038        2.5697119817        3.3660063212
 O          6.0957659625        2.2637202295        1.5110521122
 H          6.6793874679        1.7051514402        2.0370722473
 H          5.4333627961        1.6360695448        1.1350356509
 O          6.8013183944       -0.3123008491        2.5946115982
 H          7.3284022596       -0.8302561467        3.2013284895
 H          5.8748123395       -0.4231043883        2.8686215081
 O         -3.4757051438       -3.2094184905       -2.9130589748
 H         -4.4350523915       -3.1220119853       -2.7976730766
 H         -3.2029745026       -2.3628121749       -3.2957340749
 O         -5.9876113492       -2.1661929782       -2.3545151949
 H         -6.7458841145       -2.2334156465       -1.7709779763
 H         -5.5626190593       -1.3157485107       -2.1601636838
 O         -0.3384214179       -2.5645559409       -2.6389957739
 H          0.3102100538       -2.8904739990       -1.9876277083
 H         -0.9709439447       -3.2713083487       -2.7902214844
 O          6.5779409568       -0.8893026944       -0.1113256283
 H          6.8752332358       -0.8716007541        0.8113019896
 H          7.0371189742       -0.1397041292       -0.5474097308
 O         -7.3545168119       -0.4764935312        0.0284576078
 H         -7.0748873781        0.0092262226       -0.7630990956
 H         -6.5850464888       -0.9958874629        0.3255377749
 O         -4.0803537717       -3.2450884110        2.8712337813
 H         -4.5192055670       -2.7473425324        2.1687782050
 H         -3.9477881621       -2.6268795551        3.5950129854
 O          4.0198783061       -3.0372052557        1.8953301063
 H          4.0941615957       -2.2716933525        2.4739384687
 H          3.1424526368       -3.4150998628        2.0369512534
 O          7.3995275086        1.5268642390       -0.9538278220
 H          7.2276230981        2.0231295411       -0.1417016935
 H          6.6333123312        1.6889531379       -1.5316161538
 O         -4.1828086724        2.8685791065       -2.5558488406
 H         -4.3544295384        2.9892098386       -1.6082958766
 H         -4.8668144170        2.2628068311       -2.8578105294
 O         -6.8000371542        1.6868977436       -1.7005295621
 H         -6.6341621945        2.1560681862       -0.8756525951
 H         -7.6716000705        1.9472284025       -1.9999626330
 O          4.6806576274        4.0564815322       -0.1737068067
 H          4.8880023081        3.6212359208       -1.0082000954
 H          5.2886190651        3.6940585596        0.4823518892
