  147

 H         -0.5425054112       -1.1597996585        0.9180873603
 C         -0.6112510051       -0.5412956740        0.0100749183
 H         -0.5391308395       -1.1969144470       -0.8712436601
 C          0.5103658647        0.5037878336       -0.0094871839
 H          0.3911098457        1.1518924073        0.8600966290
 H          0.3944399221        1.1152669956       -0.9056411629
 O         -1.7891825170        0.2100258093       -0.0077307040
 H         -2.5646581753       -0.3620747641        0.0026734602
 N          1.8637421187       -0.1172780949        0.0059475209
 H          1.9871272141       -0.7237037740       -0.8163106223
 H          1.9839787968       -0.6890763206        0.8531041602
 H          2.5930828886        0.6072400317       -0.0077051379
 O          1.5163368384       -1.5546358640        2.2361217020
 H          1.4341721474       -2.4719604104        1.9020122389
 H          2.3413805212       -1.5122954436        2.7721793792
 O          3.5438577640        1.6292172259        3.2480626286
 H          3.4646907904        2.3141608631        2.5749315750
 H          2.7062273540        1.6554243669        3.7382210812
 O          2.0239387764       -1.7348595705       -2.1553889732
 H          2.5186524619       -1.1819201242       -2.8159964574
 H          1.2485606666       -2.1117738991       -2.5985589860
 O         -2.8599133335       -2.2973824179        0.6643164683
 H         -2.2367205869       -2.9132740209        0.2242682455
 H         -2.7012498583       -2.3702884763        1.6179804484
 O         -0.3357904713       -2.7964228160       -3.0389347017
 H         -0.8245923767       -1.9505562855       -3.1344498686
 H         -0.5887497467       -3.3467165091       -3.7810976483
 O          0.2261024458        3.0987231452        2.3291266172
 H          0.6166461546        2.9012313644        3.1918685592
 H         -0.6148884605        2.6049049494        2.3390166436
 O         -1.8524084826        1.3486974543        2.4356029159
 H         -1.3182424135        0.7072299347        2.9645432030
 H         -1.8373437388        0.9924322907        1.5215022007
 O          3.6954330299       -1.1442243197        3.7231898527
 H          4.5642588816       -1.4485450929        3.4209214982
 H          3.7124250695       -0.1813540401        3.6036214751
 O          3.2034947495       -3.5631206611       -0.6201443250
 H          3.5330385658       -2.8624344978        0.0080332400
 H          2.7487313094       -3.0352670772       -1.3067336975
 O         -1.5855864934       -0.4589633539       -2.9865361477
 H         -2.4300482135       -0.8556935872       -2.6885024612
 H         -1.8241730220        0.4241288343       -3.3327407302
 O         -0.4374221907       -0.5199348747        3.6644723350
 H          0.2866536760       -0.9485832683        3.1432600023
 H         -1.1228432532       -1.1962474614        3.7836232620
 O          4.0024546378       -1.4893817632        0.7045235887
 H          4.3988521519       -1.0228371931       -0.0633157266
 H          4.7293936890       -1.6386599468        1.3389713727
 O         -3.8032635071       -1.6231605549       -2.0845248291
 H         -3.7893144726       -2.6080992060       -2.1118200438
 H         -3.9139822641       -1.3943564056       -1.1467610378
 O         -1.1232494749       -3.9033818670       -0.5911228515
 H         -0.7770970102       -3.5722828052       -1.4377382103
 H         -0.3526670731       -4.0406552142       -0.0131580664
 O          0.6240830532        1.2592593036       -3.5444291605
 H          0.1666333645        0.4543079925       -3.2687650162
 H         -0.0688215473        1.8033606621       -3.9414539276
 O         -4.2078349742        0.0803434964        2.7849339267
 H         -4.3141552551       -0.1336985879        1.8233166899
 H         -3.4236224172        0.6594235303        2.8293713051
 O          3.9703575133        1.5299394218        0.1185285858
 H          4.3115142604        1.6119207035       -0.7882117548
 H          3.5772261272        2.3873102404        0.3660285569
 O         -0.0299951055        4.0652485583       -0.3613863721
 H         -0.0688650838        4.0009684509        0.5993572832
 H         -0.8963772908        3.7793604456       -0.6884260456
 O          1.9585214408        2.8222212438       -1.7349843185
 H          1.3131420723        3.3947712146       -1.2846386205
 H          1.4670275714        2.3446181721       -2.4235319218
 O         -2.4561431128        2.7558535056       -0.8922306340
 H         -2.1507055593        1.8524511858       -0.7043096436
 H         -2.7813651023        3.1169080987       -0.0345799518
 O         -4.5691125453       -0.2587155766        0.1896851969
 H         -4.7076737583        0.6140745116       -0.2376215548
 H         -5.4343267051       -0.7103838039        0.0876431606
 O          3.1586038155       -0.0130040096       -3.7500230417
 H          2.4160490716        0.5864702150       -3.9018275742
 H          3.8186493891        0.4822567954       -3.2390729451
 O         -6.8923516975       -1.3405616675       -0.6521823294
 H         -6.5353682816       -2.2382979497       -0.5031096088
 H         -6.7768471626       -1.1048644663       -1.5895097330
 O          5.0938429126       -0.4988590969       -1.5258808422
 H          5.9591229261       -0.1286539405       -1.3054983755
 H          5.2644189510       -1.3790591577       -1.8962294780
 O          1.1298535159       -3.9511367904        1.0080691672
 H          1.8743481362       -3.9231711867        0.3594197250
 H          1.4671533458       -4.4878505173        1.7325818767
 O         -2.7182244641       -2.0685637784        3.4271923653
 H         -3.3470654609       -1.3181359891        3.3201759086
 H         -3.1599355749       -2.7254801746        3.9661747003
 O          6.0627049252       -1.7219699633        2.4001852008
 H          6.2646667891       -0.7729331713        2.3161637224
 H          6.6308976311       -2.1644204312        1.7316976985
 O          5.5449484013       -3.1964036086       -1.8719595658
 H          4.7245151873       -3.5133504979       -1.4292979467
 H          5.6801665776       -3.7451843314       -2.6428601774
 O         -3.4673927085        3.4451932160        1.4597800222
 H         -4.4020325874        3.2372851223        1.5950329218
 H         -2.9771425545        2.9675854537        2.1379093636
 O         -2.0183235987        2.1280998507       -3.6367373987
 H         -2.9076706277        2.1090011219       -4.0400674828
 H         -2.1289418270        2.5842294215       -2.7933418241
 O         -5.3855942904       -3.2866669146        0.4284648876
 H         -4.4861690390       -2.9089133230        0.5099419746
 H         -5.8167621662       -3.0670186034        1.2696467248
 O         -3.7270078913       -4.2487473224       -1.7444724110
 H         -4.4137052711       -4.3531942471       -1.0750814159
 H         -2.8818458528       -4.4362745747       -1.3154962366
 O         -6.3277289201       -1.8351116172        2.6189063081
 H         -5.6912361177       -1.2298559213        3.0114218001
 H         -7.0511161852       -1.2719531875        2.3115087249
 O          7.5173463783        0.2809427855       -0.3528662491
 H          7.1221745463        0.6010264061        0.4764434070
 H          8.3080398901        0.7980061884       -0.5076559514
 O         -7.8971258156        0.1818327764        1.3211756493
 H         -7.6546547682       -0.3369432492        0.5285195411
 H         -8.8510584002        0.2605477925        1.3164138233
 O          4.4369653508        2.2110035100       -2.4900901083
 H          4.9221458409        2.8441573537       -3.0180483418
 H          3.5524519657        2.5899584397       -2.3156748857
 O          1.0753121130        1.6040049475        4.5026969412
 H          1.2049593665        1.6069834754        5.4503417034
 H          0.5607679924        0.8026916631        4.2980163175
 O         -5.8938037354        2.0630509112        1.6494746927
 H         -5.4358520074        1.4687808801        2.2643553808
 H         -6.7545609938        1.6336274445        1.5191103622
 O         -5.1087373155        2.0332296440       -1.0518123987
 H         -5.5106989747        2.4084653263       -0.2542489690
 H         -4.2480114415        2.4699297720       -1.1825926915
 O          5.9832709862        0.9629347190        1.8250349262
 H          5.7159894265        1.3864482963        2.6449025888
 H          5.2123595041        1.0734428981        1.2245823513
 O         -5.8615613091       -0.0538244684       -2.8352925989
 H         -5.0908366028       -0.6478120677       -2.7308285289
 H         -5.7281738032        0.6802576831       -2.2173814921
 O          7.3154890501       -2.4823276447        0.1804116093
 H          7.5704824943       -1.5959324560       -0.1142568665
 H          6.7653218853       -2.8493639236       -0.5283856161
 O          2.7079357227        3.6267272428        1.2345275754
 H          2.6545355093        4.4326865027        0.7186037474
 H          1.8007834629        3.4373211990        1.5286750568
 O         -4.6255756709        1.9453868521       -4.2586564719
 H         -5.1130613735        1.1330476323       -4.0326732487
 H         -5.1734465326        2.6734698698       -3.9627595100
 O          3.2022927053       -3.9470743471        2.8590101680
 H          3.3546744386       -3.2937247013        3.5477454533
 H          4.0587258884       -4.1346666459        2.4707319937
