  101

 H          0.4630927076        1.1941025333        0.8323452955
 C          0.5529035759        0.5095402430       -0.0251092083
 H          0.4633421181        1.0989800598       -0.9466436089
 C         -0.5779259332       -0.5149488606        0.0205351878
 H         -0.4518492551       -1.1270258236        0.9278134320
 H         -0.4840892692       -1.1748678652       -0.8448928489
 N         -1.8603253885        0.1647702474       -0.0623309406
 H         -2.6131021663       -0.5138473279       -0.0751527666
 H         -1.9956541841        0.7570092265        0.7508171933
 O          1.7808081028       -0.1833448058        0.0209869106
 H          2.5006908393        0.4507195086       -0.0567171281
 O         -2.0654678027        0.9118740657       -2.6142472658
 H         -1.9897121740        0.7411085989       -1.6308933717
 H         -1.1536285645        1.0383485024       -2.9306068154
 O          1.5313659131       -1.0507345183       -2.6737774493
 H          0.9241117628       -1.8064952182       -2.6824141185
 H          1.7773856384       -0.9384908277       -1.7413210820
 O          3.8454255147        0.8152474361       -1.7983737614
 H          3.6367011800        0.8702084532       -2.7318740785
 H          3.8208190244       -0.1438183751       -1.5834007626
 O         -2.4376639724       -1.7589660789       -3.1417044771
 H         -3.1123058112       -2.0181023609       -2.5067775147
 H         -2.3351658717       -0.7923566878       -3.0445953934
 O          2.5921670180        2.9590906232       -0.3988263693
 H          3.0662823488        2.3329849214       -0.9650576540
 H          2.6256772783        2.5950158982        0.4992101413
 O          1.9736084292       -3.5084454839       -0.5452556749
 H          1.2247466502       -3.4859287330       -1.1608861549
 H          1.6188471041       -3.3145029306        0.3278286471
 O         -0.3357798879       -3.0628599489       -2.0606863129
 H         -1.0154750369       -2.7024227771       -2.6655174390
 H         -0.8699798870       -3.3839674293       -1.3056528074
 O         -4.7834163041        0.5289772549       -1.8363559376
 H         -4.5196101221        1.2539952916       -1.2329113388
 H         -4.2164814832        0.6334801950       -2.6054238563
 O          0.5281416478        1.2752728447       -3.3991440260
 H          0.5825703695        1.3426308913       -4.3524194763
 H          0.9145546170        0.3913869000       -3.1586621547
 O         -4.1169269751       -1.7422892721       -0.5632794908
 H         -4.3150449130       -1.4171761193        0.3331124415
 H         -4.4539418514       -1.0227454818       -1.1387712496
 O          3.9057042784       -1.7331493367       -0.9766723265
 H          3.2724908213       -2.4822287081       -0.9342052885
 H          4.7947556567       -2.0726612772       -1.1767017639
 O         -2.7299468846        3.5566842598       -2.4409493387
 H         -1.8897513788        3.9105355083       -2.1304833049
 H         -2.5496138181        2.6199368521       -2.6531252769
 O          0.0328433822        3.4107266074       -1.4720024360
 H          0.8969527476        3.4759798441       -1.0310704964
 H          0.1855097491        2.8306246385       -2.2298741219
 O         -2.0023530493       -3.4923650162        0.0456689959
 H         -2.7671177316       -2.9504492213       -0.2038549773
 H         -1.7000155137       -3.1743717674        0.9083996020
 O         -2.9195078742        1.6093177308        2.9055592732
 H         -2.5644986418        2.2355878813        2.2626375780
 H         -3.5441558055        1.0208367096        2.4308366778
 O         -4.1126160796        2.7072651283       -0.3081124596
 H         -3.8390734571        3.1967696242       -1.1119987735
 H         -3.3274423860        2.7572214619        0.2539550236
 O         -1.4213066198       -0.2408578374        3.9349900925
 H         -1.9174424006       -0.4832180773        4.7161223197
 H         -1.9371479069        0.5083965971        3.5217510962
 O          1.8794412502       -1.8890478545        2.1164539649
 H          1.8229891449       -1.3239007691        1.3165848217
 H          2.8209288937       -1.9865120149        2.2853256897
 O         -1.0945161506       -2.5603567727        2.5858579188
 H         -1.2227194044       -1.6986889249        3.0356539970
 H         -0.1542817631       -2.7508667879        2.6582249879
 O          4.5986984025       -0.7809266749        1.4231188004
 H          5.3723147154       -0.2878293350        1.0968287364
 H          4.2415454950       -1.1954378993        0.6075283917
 O          3.2520092493        1.4605982922        1.9036596552
 H          3.7418983842        0.6115789516        1.7934763117
 H          2.6710102768        1.3196124643        2.6585070122
 O          1.2081098270        0.3572998190        3.6189005290
 H          1.4700877131       -0.4598898792        3.1540844906
 H          0.2963366128        0.1817831299        3.9086358060
 O          6.1650018165        0.8038343677       -0.1899530974
 H          6.1308623166        1.6498982626        0.2980094208
 H          5.4852577459        0.8994476232       -0.8752164983
 O         -1.5592409328        3.0174498421        0.8382363724
 H         -0.8267425930        3.0603086963        1.4756751107
 H         -1.1320986751        3.1700947732       -0.0210520478
 O         -4.4349796268       -0.2684542565        1.7215379432
 H         -4.6135849606       -1.0034927720        2.3248502917
 H         -5.2690185334        0.1945436797        1.4857515176
 O          6.6104717946       -1.8641599071       -0.9451307219
 H          7.0051718013       -2.2997959667       -0.1884276725
 H          6.6779037577       -0.9120476454       -0.7735566520
 O          5.3043873760        3.0631918122        1.0378271892
 H          4.6307639843        2.5898300517        1.5563574164
 H          4.8103755440        3.6074262663        0.4181980547
 O          0.5684885027        2.8000048864        2.5489333052
 H          0.8666807205        3.4847724850        3.1464744987
 H          0.7517936652        1.9437103408        2.9796947361
 O         -6.3230229148        1.2574084165        0.6378615389
 H         -5.7084934813        1.9865430289        0.4571110122
 H         -6.5077889494        0.8687662011       -0.2222677914
 O         -3.9766438798       -2.8184029645        2.6298667995
 H         -4.1764442590       -3.4246299813        1.9129133141
 H         -3.0169847265       -2.8479953066        2.7394545755
