  101

 H          0.4630927076        1.1941025328        0.8323452958
 C          0.5529035761        0.5095402430       -0.0251092077
 H          0.4633421182        1.0989800596       -0.9466436097
 C         -0.5779259333       -0.5149488604        0.0205351875
 H         -0.4518492549       -1.1270258237        0.9278134321
 H         -0.4840892692       -1.1748678656       -0.8448928486
 N         -1.8603253885        0.1647702475       -0.0623309410
 H         -2.6131021663       -0.5138473280       -0.0751527666
 H         -1.9956541839        0.7570092262        0.7508171931
 O          1.7808081027       -0.1833448059        0.0209869107
 H          2.5006908392        0.4507195084       -0.0567171281
 O          4.0442402843        1.1864446590        0.0895422134
 H          4.3583254120        0.5511724527        0.7692402462
 H          4.1859386415        2.0578690850        0.4725683052
 O         -2.1142827781        1.6410427548       -2.1843395364
 H         -2.5372750815        0.9517007310       -2.7590078801
 H         -1.8992522276        1.0944283435       -1.3597233122
 O          4.4828117677       -2.3200622701       -0.2611952270
 H          5.4441250959       -2.4669999507       -0.3000395108
 H          4.3639881989       -1.6333525719       -0.9590119215
 O          4.4851875582       -0.7613572311        1.9474038057
 H          4.4208996664       -1.4476601723        1.2483719622
 H          3.6317416686       -0.7434973726        2.4143228985
 O         -4.3415212149        2.1977021976       -0.7717474832
 H         -3.5353119064        2.1318742781       -1.3341080029
 H         -4.7844071530        3.0116448521       -1.0116044936
 O         -4.4335140506        0.8878901793        1.7442676204
 H         -4.2767239266       -0.0288912587        1.4355538548
 H         -4.4090437977        1.4489526965        0.9566788665
 O          1.9159032700       -0.1925160371        2.7980000504
 H          1.9496262191        0.7860129769        2.7379761848
 H          1.7666738386       -0.5031739106        1.8904272490
 O         -2.2018477692        1.2934504104        3.2414995789
 H         -1.7371934937        0.4443193371        3.3445765076
 H         -3.0726535572        1.1197401618        2.8334466205
 O         -0.7548919685        3.1282325808        2.1073068051
 H         -1.3073100617        2.4293453172        2.5496087997
 H         -0.9925483989        3.9542343236        2.5286689202
 O          1.9429897542        2.4829583495        2.3571925109
 H          2.1349880037        2.8567027208        1.4639196346
 H          1.0300685656        2.7657806303        2.5219550625
 O         -0.6201832637       -0.9437584467        3.5058628307
 H          0.3183966443       -0.7728016350        3.2615146894
 H         -0.5926504650       -1.2930615547        4.3971829338
 O          4.4580335262       -0.3663060418       -2.1242537156
 H          3.6310394811       -0.4132758300       -2.6259206860
 H          4.3623981411        0.3882494737       -1.5186973665
 O          1.7501612012       -0.6217810358       -2.8422074111
 H          1.7392651115       -0.5770873321       -1.8738349484
 H          1.2051640383        0.1197772597       -3.1519053361
 O         -2.2136291449       -2.8521487281        2.1946193518
 H         -1.6051383914       -2.2329573835        2.6331026185
 H         -1.6894475114       -3.3501934885        1.5489806957
 O          0.1769241515        1.5594530373       -3.5386540590
 H         -0.0820175260        1.5695238007       -4.4601127488
 H         -0.6611578709        1.6619133903       -3.0221068491
 O         -1.8315925275       -2.7482055194       -2.1838085757
 H         -2.3773597311       -3.4371013477       -2.5657326136
 H         -0.9306243403       -2.8527305101       -2.5992954323
 O          0.6185656665       -3.0546853690       -3.0568893554
 H          1.1244245420       -3.3409369270       -2.2778128604
 H          1.0097327675       -2.1852754281       -3.2629951208
 O          1.9018164592       -3.0544406674       -0.6178213707
 H          2.8688500443       -3.1241040389       -0.5663038195
 H          1.7153959261       -2.1778655955       -0.2511511657
 O         -0.6567934758       -3.8841827483        0.1063975755
 H          0.2504346724       -3.8396578512       -0.2324342483
 H         -1.2061258281       -3.4939847203       -0.5948558193
 O         -0.5558321587        3.6826249155       -0.6079627921
 H         -0.7415627091        3.4524238380        0.3176949196
 H         -1.1250845640        3.1386322221       -1.1592939649
 O          2.1759424325        3.5310251081       -0.0776801925
 H          2.4845099508        3.0053186663       -0.8345901676
 H          1.2601570114        3.7699828678       -0.2937070603
 O         -3.1634142877       -0.5153703675       -3.2467607241
 H         -4.0201257666       -0.5408393945       -2.7796677286
 H         -2.6490988685       -1.2566322641       -2.8810603127
 O          2.6521124134        2.1373783636       -2.3904572895
 H          3.2993240851        2.4710346134       -3.0112009924
 H          1.7944220027        2.1228201690       -2.8421828539
 O         -4.0891219472       -1.6349591742        0.8083808114
 H         -4.9702070512       -1.9134653922        1.0995321042
 H         -3.4325038072       -2.1456695476        1.3473368732
 O          6.9784782822       -1.4802721217       -0.8514137961
 H          7.1538531341       -0.8123414053       -0.1706407974
 H          6.5337922184       -1.0140979195       -1.5670006299
 O         -5.2095224412       -0.3745449891       -1.4273920190
 H         -4.7850132994       -0.9308088572       -0.7567663838
 H         -5.0222199187        0.5452197313       -1.1773683684
 O         -6.7281407474       -0.9657238301        1.1127745221
 H         -6.7658265004       -0.7407780115        0.1762653345
 H         -6.4354983168       -0.1734413655        1.5774165387
 O          4.7509352343        2.1907549295        2.6154504905
 H          4.8103240491        1.3387733545        3.0554141184
 H          3.8364403376        2.4825951181        2.7308778012
 O          6.9116634275        0.4166827521        1.2329844451
 H          6.2346740210       -0.1146638228        1.6741877482
 H          6.6863003319        1.3312265403        1.4230335208
 O          1.1036156377       -2.7867804229        2.1381197460
 H          1.9060671877       -3.3015473134        2.2169555593
 H          0.4816849845       -3.3218675311        1.6313636732
