  116

 H          0.4630927076        1.1941025328        0.8323452958
 C          0.5529035761        0.5095402430       -0.0251092076
 H          0.4633421182        1.0989800596       -0.9466436098
 C         -0.5779259333       -0.5149488604        0.0205351875
 H         -0.4518492549       -1.1270258237        0.9278134321
 H         -0.4840892691       -1.1748678656       -0.8448928486
 N         -1.8603253885        0.1647702475       -0.0623309409
 H         -2.6131021662       -0.5138473280       -0.0751527666
 H         -1.9956541839        0.7570092262        0.7508171932
 O          1.7808081027       -0.1833448059        0.0209869107
 H          2.5006908393        0.4507195084       -0.0567171281
 O         -2.3812523838        0.5662069434       -2.5906760682
 H         -2.4429580305       -0.4106081473       -2.7427560519
 H         -2.1375067705        0.6249541325       -1.6120569021
 O          2.5935233597        1.1565123905       -2.7284159925
 H          2.7854209906        0.2141979257       -2.5464392475
 H          1.7135190348        1.1620454040       -3.1225784901
 O          3.1369801106        2.2442821978       -0.3824633371
 H          2.9184860205        1.9673279335       -1.3026983179
 H          4.1104178923        2.2696987510       -0.3724692150
 O          3.0059076056       -1.4862621876       -2.3093780183
 H          3.0444655231       -1.9297659057       -1.4357018445
 H          2.2454130592       -1.8668648594       -2.7584390512
 O         -5.0620090826        0.7693372664       -2.2135523506
 H         -4.1169839527        0.7128800524       -2.4588004063
 H         -5.1629101109        1.6881871405       -1.8943547372
 O         -0.0293881100        0.9028323555       -3.6776669343
 H         -0.1379898724        1.0694548898       -4.6144323357
 H         -0.9443852576        0.8319281778       -3.2909932571
 O         -4.9131373502       -0.5465573806        0.0903588591
 H         -5.0931527597       -0.0967736979       -0.7646374249
 H         -5.7157235517       -0.4507884383        0.6375460377
 O         -2.5597419502       -2.0645807937       -2.7629124937
 H         -3.4466425476       -2.1416301904       -3.1615436372
 H         -2.6903548210       -2.3676418250       -1.8351303478
 O         -2.3190135428        3.1852576924        0.2625307157
 H         -1.6714207563        3.3956083182        0.9453954455
 H         -1.8066629786        3.1187764807       -0.5629726076
 O          1.0813788912        4.0707912358       -0.1048634753
 H          0.6681242909        3.8038014377        0.7285953875
 H          1.8936140186        3.5436446942       -0.1929012878
 O         -3.2617690655       -2.6734373418       -0.2587293463
 H         -4.0343967322       -2.0924873490       -0.1530537332
 H         -2.8181090076       -2.6259632725        0.6065749556
 O          1.0147263725        0.1089616901        3.9069706432
 H          1.5545486638        0.8240636093        3.5369726739
 H          1.3534066996       -0.7017979707        3.4811286438
 O          1.9384286557       -1.8104187983        2.1983061719
 H          1.7816965291       -1.1928290011        1.4522864173
 H          1.2131523967       -2.4756438220        2.1689121891
 O          4.2743580019       -0.2980834921        2.2878142107
 H          4.6633233004       -0.7667294296        1.5171313020
 H          3.6422014266       -0.9276911601        2.6525594237
 O         -4.8245289868        3.3042266264       -1.2550216072
 H         -4.3077945133        3.4981536202       -2.0672064283
 H         -4.1886224481        3.4202881465       -0.5380316327
 O         -1.3484667020        0.5342696029        2.8589112271
 H         -2.0645758675        0.7030448836        3.4937703243
 H         -0.5296289485        0.3100862670        3.3685186956
 O         -2.3803655563       -2.0011933981        2.2460961229
 H         -3.2496199175       -1.9968481033        2.6866560763
 H         -2.0047057505       -1.1197421584        2.4284105128
 O         -0.0811067515       -3.4931608316        1.7971825458
 H         -0.9444219669       -3.1210764442        2.0391085798
 H         -0.0748021921       -3.6102202128        0.8369465807
 O          0.4524830782       -3.7081384787       -1.0142231435
 H          0.1475040148       -4.5294239097       -1.4024511323
 H          0.3934262999       -3.0302623154       -1.7136367926
 O         -4.2785162067        1.7444142174        1.4677320566
 H         -4.3624538355        0.9172458076        0.9549272254
 H         -3.5692842463        2.2623676918        1.0506401289
 O         -0.6407688202        3.2618661787       -1.9318662039
 H          0.0276354442        3.6851798241       -1.3411872969
 H         -0.1581526365        2.6432856751       -2.4899348468
 O          0.1735879942       -1.9029695793       -3.0903308890
 H          0.2631206260       -0.9486001652       -3.2413369120
 H         -0.7768032330       -2.0870888880       -3.1705258357
 O          2.5863595573        1.8588366361        2.3607145235
 H          3.2736417159        1.1716939813        2.4455948820
 H          2.6974703024        2.1733258040        1.4530951427
 O          5.4848790231       -1.6927904317        0.3147451545
 H          4.8857222733       -2.4318258942        0.1621638612
 H          5.6267805808       -1.2889441195       -0.5733877565
 O          3.0081858891       -3.0491170940       -0.0634688017
 H          2.7982412730       -2.6872022549        0.8149429629
 H          2.1920743548       -3.4864717435       -0.3488707003
 O          5.6421506123       -0.4714210996       -2.0469106431
 H          4.7796767457       -0.7296057506       -2.3963529235
 H          5.5769135772        0.4521050618       -1.7571422236
 O          5.8140559941        1.9356811069       -0.6093674867
 H          6.2091533858        1.4610542805        0.1660226114
 H          6.4681383454        2.5729616269       -0.8958423307
 O         -0.1741439580        2.9414075278        2.2180016141
 H         -0.6517354166        2.1167173547        2.4462660734
 H          0.7026675966        2.8380029703        2.6062039054
 O         -6.8217444117        0.3452358069        1.7679934090
 H         -6.2854317410        0.9514535803        2.2887497461
 H         -7.1917494520        0.9104886838        1.0665330039
 O          6.8205790754        0.5769501570        1.4384387006
 H          6.8512633968       -0.3193572056        1.0803972226
 H          6.1184367929        0.5532744401        2.1012507508
 O         -3.7478580677        1.1527409455        3.9505332104
 H         -3.9620592592        1.4058968499        3.0124165248
 H         -3.7807824955        1.9628533553        4.4563954378
 O         -3.0373997458        3.2844497970       -3.2561692755
 H         -2.2184520792        3.6187567782       -2.8601142978
 H         -2.9153329568        2.3274521301       -3.2882465124
 O         -5.2212505052       -1.8353963556       -3.2416505715
 H         -5.7051013877       -2.3459155145       -2.5898786395
 H         -5.3699561924       -0.9019678288       -3.0301448777
 O         -7.2024172769        2.0792753719       -0.3154054985
 H         -6.4314101466        2.6485024292       -0.4598664873
 H         -7.5863272761        1.9226106289       -1.1790191613
 O         -4.7893568369       -1.3893418721        3.3747618128
 H         -4.4848382997       -0.5676442259        3.7861469013
 H         -5.5971014196       -1.1731113466        2.9006500714
