  612
 
 H         -1.9840565304       -0.4890096580        0.0564300423
 C         -1.0157677954       -0.5371735813       -0.4288987838
 H         -0.8601228283       -1.5543436278       -0.7919093446
 C          0.0678339317       -0.1945317986        0.5710363445
 H          1.0442662465       -0.3013449773        0.1073450528
 H         -0.0195995418       -0.8820975385        1.4054978498
 O         -1.0509283304        0.3773609521       -1.5089850169
 H         -0.1211874894        0.5398121731       -1.7720039634
 N         -0.0892324771        1.1957148347        1.0229928047
 H         -0.1070017247        1.8437331724        0.1998033226
 H          0.6839044077        1.4597015676        1.6528635195
 H         -0.9980160626        1.3331848178        1.5024172266
 O          2.6431915734        4.1372188771        2.7820038823
 H          3.3688838603        4.5088238948        2.2311569161
 H          2.7569718219        4.4947797305        3.6866555617
 O          3.4229515021        2.5331996883       -3.1796854956
 H          3.8873302958        3.1324687121       -3.7852598656
 H          3.4002553750        1.6589881337       -3.5900076537
 O          6.6201225423        3.5883996186        0.7348749395
 H          6.9406200893        2.9326206135        1.3946281218
 H          6.2310364196        3.0667180963        0.0043542660
 O         -0.5333611391        2.9035081353        3.6460396963
 H          0.3624886456        2.5366911483        3.5000531500
 H         -1.1183017476        2.1352735501        3.6376876359
 O         -3.7542362692        2.6433746923       -1.2582488540
 H         -3.9375504978        1.7133416863       -1.4644935263
 H         -3.2404913346        2.6258703186       -0.4299227469
 O         -4.6879038508       -4.5142474717       -3.3503491142
 H         -4.7851352835       -4.8195724086       -2.4232337939
 H         -3.8450047477       -4.8982993985       -3.6508503610
 O          2.7387546676       -0.4663168226        1.6937594825
 H          2.0917905959       -0.2218855591        2.3571503506
 H          3.3474153384        0.2962060365        1.6041535110
 O          4.9707470536        7.6309804525        0.6641372862
 H          5.8881247172        7.5737314383        0.3792715581
 H          4.7556094252        6.7212541349        0.9700781611
 O          2.4468506160       -2.9190598860        0.8417412889
 H          2.6599693865       -2.0020314038        1.1164835082
 H          3.1791317023       -3.4755686428        1.2085447377
 O         -2.7976285934       -2.9702555411       -1.1972692109
 H         -2.5805574380       -3.8326457381       -0.8334821527
 H         -3.7118902259       -2.7708811773       -0.9233354559
 O          1.2583255384        4.1035179104       -2.5929301839
 H          1.5171577082        4.9997419417       -2.8714020423
 H          2.0620241324        3.5630082653       -2.6950764623
 O          6.8580804014        2.6512942199       -3.4025144848
 H          6.2947434081        2.4963037499       -2.6147015844
 H          6.3379952887        2.3652317384       -4.1758396992
 O         -4.1586746364       -0.0649622232        1.0671294676
 H         -4.1952326581       -0.1295656325        0.0901689980
 H         -5.0567112816       -0.0832760388        1.4137248238
 O          0.5189775272        1.4108665256        5.8310802559
 H          0.3198076898        0.8009498465        5.1061488858
 H         -0.2972679495        1.9348369954        6.0023029305
 O          1.7627148785        1.7400788900        3.0692021051
 H          2.2681622864        1.2574475414        3.7437462140
 H          2.2501595959        2.5770061640        2.8909082704
 O          3.9705518037       -0.0622202908       -1.2997759069
 H          4.1083897931       -0.6282561460       -0.5241352921
 H          4.3746921952       -0.5238226796       -2.0616810700
 O         -5.5090590050       -4.2586916434        6.7858071243
 H         -5.3803109210       -3.3190680180        7.0175601384
 H         -4.6242329736       -4.6392207014        6.7007966119
 O          0.2334151331       -2.8716694051        2.2924389009
 H          1.0721086973       -2.9421686607        1.7978365640
 H         -0.1927693642       -3.7319573427        2.2565915131
 O          0.4900169930       -0.8807985790        4.1000564909
 H          0.1287777855       -1.3269487648        4.8854323885
 H          0.4129937099       -1.5678037978        3.4114194887
 O          0.8415756632       -0.2659656855        7.8369854469
 H          0.6676281712        0.3880397522        7.1103459760
 H          0.0976995968       -0.2063726058        8.4354206064
 O          5.3966551556        4.6947195965        3.8853162871
 H          4.7837850812        5.1474875245        4.4709048050
 H          5.1350752499        3.7521391410        3.9052029925
 O         -2.2230557636        5.0056044332       -0.1211393289
 H         -1.6419955173        4.3310524425       -0.5273738661
 H         -2.2536772795        4.7694730112        0.8333018385
 O         -4.3738599249        0.9753219250        3.7509829586
 H         -5.2416510828        0.9096077465        3.3281278121
 H         -4.2831565430        0.1185292175        4.2155625560
 O         -2.4280037852       -1.9288321165        1.8865630496
 H         -3.1845026854       -1.3573520215        1.6639066496
 H         -2.6169775875       -2.7691717044        1.4482112096
 O          1.5299818480       -2.2442612202       -1.5734623662
 H          1.2299141891       -3.1263419691       -1.8766177044
 H          1.9981404343       -2.4105443248       -0.7378476500
 O          9.1307960524        4.6653914624        1.4776192803
 H          9.5483583236        5.0408314193        0.6972381006
 H          8.3186490166        4.2367257340        1.1606309765
 O         -2.6868159386        2.1734796883        1.1686895483
 H         -3.1901989712        2.8733070273        1.6161777723
 H         -3.2433655590        1.3727150258        1.2091161793
 O          1.5622833398        1.0054070718       -1.7839589351
 H          1.7528201247        1.7157407244       -1.1342770468
 H          2.3800446681        0.4778812453       -1.7845230532
 O          0.4827654672       -2.4824758340        6.3232628639
 H          0.6884088277       -1.7613091521        6.9463258540
 H         -0.4012336771       -2.7805087737        6.5538369755
 O         -1.6621459423       -2.6670269382        4.3701847133
 H         -1.2831170415       -3.5532118453        4.4746727234
 H         -1.7257253009       -2.5075186142        3.4135688560
 O         -1.1095732110       -2.6704590938       -7.3909490040
 H         -1.4908914345       -1.8159278870       -7.6527268600
 H         -0.3073054938       -2.5132695327       -6.8498742334
 O          3.6323316650        8.0417154134       -1.6428922764
 H          2.8306873853        8.5368324169       -1.4478909200
 H          4.0815431280        7.9207225440       -0.7754344923
 O         -0.3229696647        5.4760529873       -5.3556598454
 H         -0.8037895626        4.8737448522       -5.9379840735
 H          0.5673596969        5.0809378095       -5.2828027920
 O          5.2265529271       -1.4959755578       -3.1781165815
 H          4.4450734355       -1.9590209816       -3.5519178343
 H          5.5764161828       -2.1356928302       -2.5054919069
 O         -1.0012828675       -5.3987198470        1.7664729527
 H         -0.9348273571       -6.3571031765        1.5716192366
 H         -1.8854905339       -5.1018928885        1.4606655155
 O        -11.4838212225       -1.2392098711       -3.0953249283
 H        -12.0796722680       -1.6817068311       -2.4855821058
 H        -11.3371499510       -0.3561884960       -2.7011284338
 O         -8.6395600075       -0.0608757817        1.2168250408
 H         -8.6797448933        0.6573148529        0.5621873732
 H         -9.5556234107       -0.1958959881        1.5251110822
 O         -1.8160007736        0.4624063571        3.2037764135
 H         -1.7859072798       -0.4153160917        2.8014040582
 H         -2.7582101592        0.7123099965        3.2258818244
 O          0.6819991348        1.9286086970       -4.1181088842
 H          1.1358494788        2.7473348514       -4.3986794720
 H          1.1408923381        1.5969787463       -3.3137799344
 O         -1.4690741688        7.5022860215        0.2561186232
 H         -1.6371277105        6.5368506896        0.1341928676
 H         -1.8246117761        7.7140715456        1.1246986103
 O         -6.5608132426       -0.3512259736        2.8581210617
 H         -6.2052926172       -1.2431960032        2.6514029917
 H         -7.3701334641       -0.2391234112        2.3225652115
 O          7.1655180842        2.0710184703        5.6582880250
 H          7.5296079574        2.9380098580        5.4425868254
 H          7.8835201474        1.4232027688        5.5197571411
 O         -5.0030778571       -5.5367710969       -0.8773790627
 H         -5.9572272747       -5.7113968900       -0.8332270059
 H         -4.5534971613       -6.3680288213       -0.6876924748
 O          2.3048532143        2.7104733909        0.1129035062
 H          2.7032467166        3.4017039039       -0.4252140189
 H          3.0242591993        2.3464553641        0.6549547568
 O          5.2822651329        2.3214465075       -1.2440529619
 H          4.6140293706        2.9686254354       -1.5168985401
 H          4.8075322660        1.4647892953       -1.2358548425
 O         -0.6215348391       -5.2164005164        4.4748735811
 H          0.3229192720       -5.4251439609        4.5174156354
 H         -0.8755036472       -5.3993818809        3.5531927644
 O         -6.5588907561       -4.1191374429        4.3922859224
 H         -7.0315838346       -4.9214730750        4.1646911066
 H         -6.2966534320       -4.1852014896        5.3473582061
 O          3.7891215817       -7.3678956674       -3.8855547870
 H          3.0840033210       -6.8883718255       -4.3579512233
 H          3.5059151255       -7.3878089042       -2.9524031291
 O          1.9344303311        3.9806570717       -5.4047044806
 H          2.7234547740        4.4397216016       -5.0845390861
 H          2.2579716093        3.2812945625       -5.9998146691
 O          3.7704449128        4.6573594753       -1.3423463098
 H          4.3614339375        5.1538656986       -1.9361058445
 H          3.0035738426        5.2527803859       -1.1776441624
 O          3.0413689204       -2.8521345296       -3.6894565204
 H          2.5210262955       -2.4412707510       -2.9726374309
 H          2.4595373774       -2.9134122819       -4.4634041102
 O         -3.8190063554        1.2270656589       -4.2855241806
 H         -3.9249530866        1.5324971862       -5.2058579314
 H         -3.1322767926        1.7790000780       -3.8600232403
 O         -0.5741944123       -5.1624605040       -5.6784977655
 H         -0.9898378973       -4.8483571280       -6.4833805648
 H         -1.2738848285       -5.3526838674       -5.0289831247
 O          2.8986992150        4.8362512717        5.3462812675
 H          3.0363077105        3.9864888769        5.7909379002
 H          1.9553983284        5.0488842675        5.4829185910
 O         -1.9286905229        5.1433968858       -3.2263766193
 H         -1.7134834447        4.2366682785       -2.9400051620
 H         -1.3043926425        5.3343985287       -3.9550725901
 O          5.0141859257       -1.6317037277        0.7291928468
 H          5.6482678345       -0.8830516358        0.7318151991
 H          4.7905324375       -1.8033999624        1.6567375517
 O         -3.5883921945        3.4751077906        4.4877413586
 H         -3.1969356549        3.8585448426        3.6737638171
 H         -3.9069862270        2.5827827081        4.2525716626
 O          4.8948275859        2.0498826077        4.1969868146
 H          4.1847738426        2.0103100848        4.8631523336
 H          5.7307779151        1.9415517187        4.6879645830
 O          0.4494804254       -0.9231518060       -3.6080626191
 H         -0.5205660832       -0.9107633228       -3.6000384295
 H          0.7261905105       -1.2958938642       -2.7562947667
 O         -2.1060642932       -0.7914123999       -4.4666750212
 H         -2.8465326424       -0.1643763360       -4.3442819296
 H         -2.4698901226       -1.6363682389       -4.7751052188
 O         -0.4051513694        0.5080236818       -6.0076260297
 H         -0.9619251740       -0.0584821130       -5.4230983142
 H          0.1814510711        0.9595963820       -5.3578379023
 O         -1.6845074294       -5.6896930775       -1.2183438486
 H         -2.2933608037       -6.2218665088       -0.6681168004
 H         -0.8641814325       -6.2057969614       -1.2682278688
 O          8.6816502813       -2.2671072976        2.2296781323
 H          8.7201659560       -2.8635332097        3.0155004361
 H          9.6013325902       -2.1018770730        1.9606997245
 O          2.1081311673       -7.0626960576        1.6324347800
 H          1.8285675630       -6.4083414564        0.9548695654
 H          3.0599098891       -7.1906682599        1.5123171577
 O         -6.5437554144        1.8991650706        5.5127906228
 H         -6.8156238869        1.0115268435        5.7971794927
 H         -7.0210310875        2.0132017089        4.6713697106
 O          8.0111798254        4.2837601315        4.1214929724
 H          7.0712311392        4.5701579530        4.0645307652
 H          8.4567159020        4.7506621588        3.4049315071
 O          9.2425989673        4.9584256318       -1.4061006481
 H          8.9475997163        4.0529092676       -1.2088436796
 H          8.9720064212        5.1010692405       -2.3393393672
 O          6.9939753977        6.0654154915       -0.5043879335
 H          6.7350962370        5.2659620483       -0.0193060312
 H          7.9010278457        5.8692245106       -0.8216534406
 O         -3.7853237272       -0.0309402263       -1.5963565902
 H         -2.8346557081       -0.0104371825       -1.7619088632
 H         -4.1402668985       -0.7337083136       -2.1711370930
 O          2.8619320430        1.6779423140       -6.4939692716
 H          2.7923403277        1.1285029290       -5.6769647502
 H          2.5723383946        1.0980400091       -7.2045349175
 O         -1.8182537324       -0.1445075740        5.8796479742
 H         -2.6140217888        0.3525538706        6.1339620789
 H         -1.7449067410       -0.0682934452        4.9123979766
 O         -8.9469143540       -0.7807827194       -1.4182891840
 H         -9.5057118089       -0.0043668210       -1.5786500143
 H         -8.4978710168       -0.9931975341       -2.2577613131
 O         -6.7800245483        0.5883399855       -5.5138124954
 H         -7.6656631247        0.5351449319       -5.8816199557
 H         -6.5334070345        1.5373697859       -5.4637781135
 O          8.2894218932       -5.0432623625       -0.8092135717
 H          9.2034334474       -4.8497633337       -0.5705724631
 H          8.1640554270       -4.6250389840       -1.6891188682
 O          8.3301548751       -1.9137773952       -0.7196854546
 H          8.4658332738       -1.3297578360        0.0409466996
 H          9.0811322791       -2.5340967143       -0.7171792355
 O         -4.1159482072        1.0486292271        6.7336915457
 H         -4.8130025859        1.5159076536        6.2479579633
 H         -4.5142882003        0.2096461912        7.0179255583
 O          0.4730303726        4.6987996498        1.3831958161
 H          0.2256224610        5.4694161230        1.9301319661
 H          1.2759962526        4.3516110828        1.8267712217
 O         -7.4390369369        4.7105206314        2.3104012771
 H         -7.0304514282        5.4832178455        1.9128242472
 H         -6.9883322811        4.6101497546        3.1780495370
 O         -2.1805866228        4.6428791466        2.5024467565
 H         -1.3824038530        4.1577169812        2.7851091919
 H         -2.1048672019        5.5810380285        2.7582967030
 O          0.2565560519        6.7676293954        3.0231192197
 H          1.0548648601        7.2340037281        2.6918148272
 H         -0.4771652176        7.3883171177        3.0081926775
 O          2.3137778292       -3.1228888740        4.3714135278
 H          1.5587343841       -2.9231350060        4.9494192018
 H          2.1781403298       -4.0402281322        4.0639854991
 O          7.0063071781       -0.4502109564        3.2179712073
 H          7.5819591504       -1.0911822920        2.7477173055
 H          6.1080941386       -0.7941135161        3.2052228169
 O         -2.8468770077       -3.2509699615       -5.4986818038
 H         -3.7097689682       -3.4964187402       -5.8412822783
 H         -2.2537011831       -3.1031435308       -6.2721708219
 O         -8.1141125041        2.0802631173        3.2482576010
 H         -7.5204814940        1.9892389623        2.4704727810
 H         -8.5071983295        2.9509881021        3.1845858894
 O          2.9057690555        0.0566822262       -4.3876400672
 H          3.2737801780       -0.6447889891       -4.9647184706
 H          2.0163236336       -0.2314146640       -4.1297950366
 O         -1.5507981857        3.0504050536       -6.0046476424
 H         -1.0041575183        2.2649884625       -6.1781951313
 H         -1.6804201461        3.0606318812       -5.0465309259
 O          6.2508357386       -2.5562097281        5.3570932521
 H          5.5273758595       -3.0004072251        5.8503752014
 H          6.3838492797       -1.7189500566        5.8491516043
 O          3.9643269922       -3.3310096391        6.4315969027
 H          3.3376786262       -3.2391203516        5.6706127938
 H          3.8201747972       -2.5250853587        6.9565328254
 O          1.9330250187       -5.6705817656       -4.7998970999
 H          1.6492340591       -5.2749435672       -3.9475790864
 H          1.1314613804       -5.6983810573       -5.3368658076
 O          4.5863160210        4.4873083517       -4.6800129646
 H          5.3043831094        4.0906639661       -5.1803435522
 H          4.9548503249        5.1669602950       -4.0985898980
 O          3.6074160514       -4.4817230342       -1.5130643394
 H          4.5293627681       -4.2414523794       -1.3483453153
 H          3.4011448518       -4.1410701009       -2.3969330761
 O          4.5883216361       -1.9169328687        3.4089776184
 H          5.2320479412       -2.2520524090        4.0744342142
 H          3.8316190395       -2.5232625695        3.4506410025
 O          0.3883151275       -7.4993251657       -1.5232891790
 H          0.3929774713       -8.1090193134       -2.2603090858
 H          1.3308334025       -7.2460092423       -1.3776577821
 O          2.9561326838       -0.1554092957        4.6520415580
 H          3.5871251769       -0.6865224808        4.1306138218
 H          2.0711710379       -0.5637986358        4.5075399458
 O          9.1652778761        0.3117518969        0.7512831994
 H          9.5516166527        0.4042225488        1.6487304814
 H          9.9175508586        0.1347793993        0.1513649426
 O         -7.2898707443       -0.7184128557        5.4482057146
 H         -8.2478629290       -0.6420386283        5.3964937243
 H         -6.9763795390       -0.6229043659        4.5194976569
 O         -2.2821812036       -2.3663180866        7.2152607213
 H         -3.1229903243       -2.1592143802        7.6291439366
 H         -2.0819042671       -1.5911004994        6.6332196555
 O         -8.2703570497        4.1543091806       -4.4720915443
 H         -7.5951048693        3.8940863574       -5.1149608584
 H         -7.8163699977        4.8099981627       -3.9170883038
 O         -1.2236879206       -3.2365854240       -3.2899990197
 H         -1.8188925429       -3.0532007936       -2.5385318682
 H         -1.7923641509       -3.4362587693       -4.0421374547
 O          0.2000006466        5.0972573670        5.1600818612
 H         -0.0739697651        4.2462381188        4.7768836861
 H          0.2832621644        5.7194425631        4.4134058217
 O         -8.7074984921        5.0407998895       -1.3942048016
 H         -8.4198654284        5.7947730111       -1.9150539518
 H         -7.9012971972        4.4828585196       -1.3245481549
 O         -5.3299802182       -2.4960076780       -0.3464741414
 H         -5.9587796763       -3.0557985859       -0.8370262167
 H         -5.6854836759       -1.5897456463       -0.4528189255
 O         -6.5299670215        3.4833709245       -1.0580764882
 H         -5.8510202509        4.1773693420       -0.8895241791
 H         -6.1244367536        2.8610540143       -1.7018346752
 O         -1.7514453137        2.7383289325        6.3613252629
 H         -2.3201305675        3.0516127391        5.6333604154
 H         -2.3485335413        2.2753024756        6.9541700107
 O          6.8749139873       -4.0057787619        1.2483747307
 H          7.4973390662       -3.3113497316        1.5274685815
 H          7.2955942167       -4.4321363900        0.4756195797
 O          5.9451519504       -3.0774660780       -1.2432543587
 H          6.8905397575       -2.8781295516       -1.1275244505
 H          5.5248455612       -2.6539036614       -0.4632116078
 O         -8.0649541539       -2.7327195173        0.8835851666
 H         -8.1933897355       -1.8063993782        0.6262402161
 H         -8.4038388324       -2.7675932342        1.8088944660
 O          1.8752070409        6.1308290381       -0.3559962323
 H          1.2480833712        5.5877646350        0.1628640588
 H          1.3858620321        6.8441983624       -0.8110891543
 O         -9.6004739658       -3.2175517539       -3.0090931939
 H        -10.2456582341       -2.4844745684       -3.0148541238
 H         -9.3042637433       -3.3159087229       -3.9264375259
 O        -10.9722272565        1.1254253469       -1.8951157714
 H        -10.9198035958        1.9934979259       -2.3410042069
 H        -11.2858485291        1.3288467254       -1.0014011317
 O         -9.6153674042       -0.1247102507        4.0824765330
 H        -10.3977120895       -0.1915173925        3.5206913811
 H         -9.1119127958        0.6426133697        3.7553793565
 O         -8.7528950482       -2.6667901862        3.4138133337
 H         -9.0464050362       -1.7877753993        3.7095480246
 H         -8.0084344880       -2.9422978396        3.9662161971
 O         -3.3712326175       -4.4073394676        1.1391325954
 H         -3.7038065833       -4.4243373616        2.0561107819
 H         -4.0893039238       -4.6987611031        0.5565220242
 O         -5.6866104360       -3.5878497726       -5.8167415760
 H         -6.6446192688       -3.4058905961       -5.8012608412
 H         -5.4883930294       -4.0204955709       -4.9727129035
 O          9.1494300681        1.2178032201       -3.9805802865
 H          8.3623401411        1.7592494597       -3.7915691307
 H          9.8828450694        1.5888355483       -3.4724206449
 O         -2.3940866881       -5.8976528332       -3.7365727055
 H         -2.0972039588       -5.7312208889       -2.7991188035
 H         -2.5685618702       -6.8351008156       -3.8084281245
 O         -5.3927790341       -2.6230304569        2.2884230430
 H         -5.9483019855       -3.3504005191        2.5846390879
 H         -5.3434508119       -2.6637122563        1.3032330200
 O         10.9582517259        2.2613584606       -2.1077859284
 H         10.1057759497        2.3751464528       -1.6194901986
 H         11.3542246227        3.1306512080       -2.1696926265
 O         -3.1827445191       -7.3729861333        0.2613133629
 H         -2.4639566029       -7.9280681651        0.5797422084
 H         -3.7457641516       -7.1972008623        1.0575968752
 O         -4.6645699928       -1.0701529615       -5.9032457498
 H         -5.0767499285       -1.9295400239       -6.1061709987
 H         -5.3845480191       -0.4153666134       -5.8755435303
 O          0.6898685621        8.2768825888       -1.3522419206
 H         -0.0650487556        8.2530909917       -0.7474053619
 H          0.3408393223        8.2383220626       -2.2566078774
 O          1.0627268773       -5.1595634174        0.0382175415
 H          1.6166461441       -4.3824286287        0.2038970280
 H          0.2611036567       -5.0778986521        0.5878587700
 O         -0.3325563891        3.2607400589       -0.7185294747
 H          0.2486964060        3.5337078300       -1.4662343135
 H          0.0343605505        3.7282669696        0.0537144334
 O          0.8802137887       -2.7342621363       -5.5100425094
 H          0.6117275503       -2.1015205797       -4.8081947382
 H          0.4543175603       -3.5785165050       -5.3065496002
 O         -5.9324879301        3.1299499293       -5.4377649540
 H         -5.3047283377        2.9987853139       -6.1613776603
 H         -5.4022099784        3.4493946084       -4.6786972185
 O        -11.7365071029        2.1765601930        0.5974239041
 H        -12.5785131552        2.6306198424        0.5629967892
 H        -11.0686158493        2.8445988064        0.8318412758
 O          8.6001760569        2.3353112865       -0.9144565149
 H          8.7551792505        1.7609901271       -0.1386304681
 H          8.0396315266        1.8209435939       -1.5162628642
 O         -5.0453413598        6.4636964930        2.8282401384
 H         -4.8124719041        5.5470746623        2.5858329716
 H         -5.4069206821        6.4015499700        3.7163647853
 O         10.5404160037       -3.4893977883       -0.5419172491
 H         10.8948374793       -3.1360380675       -1.3704781202
 H         11.0116121479       -3.0697374965        0.1886779352
 O          2.0419978032       -5.7360106616        3.9507596627
 H          2.0268786505       -6.2356894274        3.1058757480
 H          2.9141198822       -5.8949884128        4.3423740883
 O         11.2986801728       -1.6420692850        1.4573309650
 H         11.5019346142       -1.1043488158        0.6765826976
 H         11.2953563734       -1.0118040044        2.1947728450
 O         -7.6929594944       -6.3492403239       -0.7100743821
 H         -8.4028564007       -5.6518516138       -0.7190856140
 H         -8.1297525560       -7.1846035083       -0.8674196489
 O          5.4996319869        1.8593204921       -5.5693285034
 H          5.8474316600        0.9526171444       -5.6704222861
 H          4.6347050965        1.8675330300       -6.0068621663
 O         -5.1354684570       -1.5481618534        6.8846502440
 H         -6.0478435529       -1.3175325013        6.6527567625
 H         -4.6974414354       -1.6186777796        6.0004112789
 O         10.8501796701       -2.0167292833       -2.9007437449
 H          9.9756492564       -1.8581986378       -3.3132362047
 H         11.4803944811       -2.0605458890       -3.6195082868
 O          7.8634013680       -3.8763236603       -3.1836370083
 H          8.0420294053       -2.9532986649       -3.4163890062
 H          6.9314840628       -4.0439499183       -3.3589992423
 O          6.2150442647       -0.3456322711        6.8382092274
 H          5.2922485246       -0.4040783944        7.1283611720
 H          6.3879861506        0.5760031099        6.6166085071
 O          8.3614292696       -3.9126579788        4.2720578423
 H          7.6408817588       -3.4654885691        4.7498299218
 H          7.9946804346       -4.7590969005        3.9735718406
 O         -3.9605392612       -4.6804255379        3.7533524442
 H         -4.8676858729       -4.4041523000        3.9721644718
 H         -3.4734744894       -4.6967543389        4.6027791185
 O        -11.2418374602       -0.3069185165        1.7957676292
 H        -11.3694435560       -0.9987702596        1.1137689342
 H        -11.5651510564        0.5210364496        1.4140185416
 O         -6.4583364301       -0.0791422005       -0.5742225632
 H         -6.1420135323        0.4162917224       -1.3589559929
 H         -7.3798007950       -0.3326735271       -0.7751870219
 O         -8.2135745384       -2.7356801224       -5.3302329543
 H         -8.7714593834       -2.1477056194       -5.8469127580
 H         -7.8583850570       -2.1495989505       -4.6110346849
 O          2.2094275672        6.4745852471       -3.4221100748
 H          2.7478501103        6.9940961246       -2.8028340611
 H          1.5123391107        7.0614714394       -3.7282710074
 O          4.0620475087       -4.2864148889       -5.8754006292
 H          4.6898552188       -4.5075514330       -5.1733085573
 H          3.2472928764       -4.7573484046       -5.6297474446
 O         -8.4722158699        1.6989296835       -3.4222166701
 H         -8.8622856290        1.7666284570       -2.5372507522
 H         -8.4840097724        2.6046136787       -3.8003258187
 O         -9.6845692842        4.0150474340        0.9255332897
 H         -9.5856965103        4.5976012101        0.1558031789
 H         -8.9284470750        4.2444716018        1.4981616151
 O         -4.7287611245       -6.8142740766        2.3229514728
 H         -5.5054300898       -6.3088095790        2.0380805590
 H         -4.2925998878       -6.2340000373        2.9745125475
 O         10.6745034793        3.0954326757        3.1081465279
 H         10.4141974666        3.4799180694        3.9468360366
 H         10.1639052670        3.5743881660        2.4275256857
 O         -2.5656341294        7.5492679720       -2.2416261102
 H         -2.1827035625        7.6664998051       -1.3523114197
 H         -2.3813218971        6.6182561226       -2.4852152815
 O         -8.7494638825        1.9742072254       -0.6089379621
 H         -7.9010461995        2.3847290361       -0.8203507148
 H         -9.2130198089        2.6294263379       -0.0597922568
 O         -7.2586388151       -1.1383004047       -3.4719046823
 H         -7.1423651115       -0.3848358012       -4.0766223294
 H         -6.3524316779       -1.4365521178       -3.2307850390
 O         -2.3636942025        6.0371141270        5.4240616112
 H         -2.9180369220        5.2518657341        5.4457668468
 H         -1.4521766229        5.7270158865        5.5789897802
 O          5.9585659499       -6.4173866417       -1.1340791245
 H          5.7329860645       -6.0380817101       -1.9981840593
 H          6.8634321455       -6.1255733955       -0.9577455826
 O         -0.3346288103        7.8857100904       -3.9028833927
 H         -0.3676359212        7.1937555840       -4.5785039819
 H         -1.2295093945        7.9405516183       -3.5325474648
 O         -0.4723734533       -7.9317930508        1.0410599551
 H          0.3625402723       -7.9746975598        1.5264343376
 H         -0.2017783247       -7.8655744896        0.1068093692
 O        -11.1268721847       -2.0368902703       -0.2797908562
 H        -10.9308614423       -2.9624664639       -0.0953928297
 H        -10.3109418760       -1.6675113069       -0.6708219157
 O          4.5613509944       -5.7211435724        5.1529877864
 H          4.4060075147       -4.9524955786        5.7251739923
 H          4.8613104798       -6.4336291952        5.7174009150
 O          6.6255889972       -5.8924172821        3.1634129317
 H          6.6958381110       -5.1929787663        2.4790311993
 H          5.8741338891       -5.6657910240        3.7295094357
 O          0.8646080340       -4.6158490847       -2.6010975582
 H         -0.0177150850       -4.2524624094       -2.8446758359
 H          0.8190031405       -5.0304321038       -1.7245500633
 O          8.4964875524       -1.3247821910       -4.0557167769
 H          7.9424016278       -1.3345851462       -4.8473652031
 H          8.7428468331       -0.3702484492       -3.9703925139
 O         -4.8142485365        5.3259440244       -0.3796257901
 H         -5.0071323805        6.2149001973       -0.7138491415
 H         -3.8467463159        5.1836696991       -0.4832933963
 O         -6.5706257746        5.7719684693       -3.0239371711
 H         -5.8072318171        5.1738305775       -3.1484713888
 H         -6.1902828442        6.5893705239       -2.6790257272
 O          7.7474631867        2.0728173306        2.5375903618
 H          7.8971799341        2.7287711866        3.2386440057
 H          7.3980557946        1.2602235521        2.9310843977
 O         10.4716881818        0.4229021111        3.0718867890
 H          9.9711113701        0.2337573439        3.8801384297
 H         10.6514441169        1.3857259592        3.0841656373
 O         -6.7779474731       -5.1140147761        1.5445900703
 H         -7.1689702516       -5.7355916936        0.9150430984
 H         -7.1195672704       -4.2542489292        1.2540664192
 O          3.0450355195        2.2098997380        6.1962690391
 H          3.3246033749        1.6555244931        6.9273933265
 H          2.1120281497        1.9679104554        6.0136124393
 O         -3.8689737987        2.1014701646       -6.8734553028
 H         -3.0383878070        2.6014548003       -6.7280332943
 H         -3.6401737030        1.3594341729       -7.4512722796
 O         -6.4034399802        1.9729582525        1.1720358761
 H         -6.4920480616        2.6565581338        0.4825368275
 H         -6.4458079148        1.1324584664        0.6713824594
 O         -9.5736832816       -0.2006866908       -5.1123471849
 H        -10.3680545767       -0.5746679797       -4.7206225515
 H         -9.2749394419        0.4787359670       -4.4823053431
 O          4.8366845267       -6.9047131500        1.2359943910
 H          5.2752021055       -6.7371901625        0.3749071971
 H          5.5463700709       -6.9022342044        1.8991862593
 O          5.5201469200        6.2400435494       -2.6835670128
 H          6.0877221000        6.2200554493       -1.8693024572
 H          4.9942708782        7.0465019873       -2.6104589056
 O          5.6081107643       -5.5081730599       -3.8067632720
 H          4.9112210057       -6.2238363178       -3.8681308339
 H          6.3797606556       -5.8787933160       -4.2375389655
 O        -10.5909917704        3.6440851947       -2.8205053090
 H        -10.3262688563        3.8479736637       -3.7212935599
 H         -9.9793332010        4.1529972951       -2.2554537586
 O          7.9387603904        5.0965453328       -3.7287867806
 H          7.5744625285        4.1898358698       -3.6649465784
 H          7.1954229379        5.6900373280       -3.5750924842
 O          3.5010439612       -0.6901463854        7.1785148110
 H          3.2959344650       -0.4747787329        6.2334672215
 H          2.6620452723       -0.6030010345        7.6480313777
 O          6.4933420880        0.5001435879        0.5208928613
 H          6.6341590587        0.4916656505       -0.4508028009
 H          7.3735894496        0.5404961814        0.9187511443
 O          4.2904096368       -4.3497510828        1.9462918497
 H          4.2892823390       -5.2915236749        1.7028856070
 H          5.1541826477       -4.0219410724        1.6433648102
 O         -5.9438438646        1.4772084738       -2.6680929727
 H         -6.8053372643        1.4826590765       -3.1297949155
 H         -5.2256795317        1.3378800688       -3.3140565528
 O          2.3289460203        7.7871300117        1.7562730575
 H          2.2981174144        7.1984049945        0.9752459499
 H          3.2451772911        8.0580586796        1.8384808446
 O         -5.1265604346        7.7250623137       -1.6558446964
 H         -4.1857367145        7.7141052936       -1.9689539413
 H         -5.2975355333        8.6068220137       -1.3282373095
 O         -6.0828784255        4.5322318127        4.6524344522
 H         -6.4858886635        3.9312340828        5.2860053122
 H         -5.1665729670        4.1943427015        4.5595876099
 O         -4.6499211761        3.8906981411        1.9264142862
 H         -5.3240397928        3.1948926027        1.9213991180
 H         -4.7392424975        4.3629518013        1.0820568251
 O          1.4958429767       -0.5789066939       -7.6103098043
 H          0.7889665825       -0.2480546978       -7.0176726719
 H          1.0738729805       -1.1145799560       -8.2811903753
 O          4.3355316518        1.6506910835        1.5891835231
 H          4.5600906717        1.8242203048        2.5186131709
 H          5.1515840510        1.3454572234        1.1519473986
 O         -2.4843611325        7.2779146320        3.0453983740
 H         -3.4403780136        7.1894548494        2.8547153304
 H         -2.4216164767        7.0539193878        3.9982853551
 O         -2.6016892498       -0.3082909243       -7.5699603384
 H         -3.2765347268       -0.6268410546       -6.9396020631
 H         -1.8979162601        0.1123063175       -7.0588147061
 O         11.2244161327       -0.1724900414       -0.9111994995
 H         11.0737172671       -0.8043551086       -1.6377570194
 H         11.3545873995        0.6919011790       -1.3355759752
 O          3.7197307136       -1.6517436961       -6.2779340255
 H          2.9528774775       -1.4772075429       -6.8422280020
 H          3.8068076889       -2.6250134981       -6.1874325662
 O         -1.6836196863        2.4820551126       -3.1951540513
 H         -1.7491987716        2.1602438046       -2.2864039782
 H         -0.7668414029        2.2423639911       -3.4890792717
 O         -4.4314660004        4.1191346734       -3.3809159045
 H         -3.6178861520        4.6379930743       -3.5044247997
 H         -4.2358502401        3.5651121441       -2.5955404277
 O          4.4775259014        5.0644381583        1.1748367744
 H          4.2104905671        4.8750085860        0.2476481813
 H          5.2842382312        4.5386272702        1.3282317540
 O          7.1843360014        0.1819568756       -2.0010082584
 H          6.5462974022       -0.1198111180       -2.6552746447
 H          7.7431158644       -0.5880420891       -1.7961862308
 O         -7.0867708991       -3.6645325065       -1.9845949418
 H         -7.9496110597       -3.3320361537       -2.2747989102
 H         -6.6778015032       -4.0850443944       -2.7406926837
 O         -4.7357148127       -1.8330602858       -3.2948819893
 H         -4.5982404199       -2.7994866965       -3.2429854439
 H         -4.5577400295       -1.5555058164       -4.2130196518
 O         -9.5374495898       -4.4582916541       -0.5403460662
 H         -9.6360913125       -4.1194485946       -1.4431891775
 H         -8.9712595609       -3.8079047837       -0.0621774017
 O          2.9821094185       -7.0000368490       -1.3197542086
 H          3.1895949227       -6.0251729097       -1.3576557518
 H          3.6168233777       -7.3830131107       -0.7117627412
 O         -4.0607157601       -1.5994711180        4.4871872661
 H         -4.4933670777       -2.0403452111        3.7387580045
 H         -3.1678472752       -2.0067879689        4.5538991008
 O          6.2063633361       -0.7820935815       -5.5912706166
 H          5.8936220004       -1.0008544430       -4.6921054230
 H          5.4976113268       -1.1119697293       -6.1623455809
 O          8.7423938876       -0.0693677244        5.1797453273
 H          8.7241017248       -0.7145059707        5.8873195253
 H          8.0399804751       -0.3271006146        4.5399570623
 O         -2.7987416835       -4.7750937340        6.1537063072
 H         -2.5611247953       -3.8924126306        6.5145166600
 H         -1.9723700993       -5.1724427800        5.8498793420
