  132

 H         -0.5425054112       -1.1597996585        0.9180873603
 C         -0.6112510051       -0.5412956740        0.0100749183
 H         -0.5391308395       -1.1969144470       -0.8712436601
 C          0.5103658647        0.5037878336       -0.0094871839
 H          0.3911098457        1.1518924073        0.8600966290
 H          0.3944399221        1.1152669956       -0.9056411629
 O         -1.7891825170        0.2100258093       -0.0077307040
 H         -2.5646581753       -0.3620747641        0.0026734602
 N          1.8637421187       -0.1172780949        0.0059475209
 H          1.9871272141       -0.7237037740       -0.8163106223
 H          1.9839787968       -0.6890763206        0.8531041602
 H          2.5930828886        0.6072400317       -0.0077051380
 O          4.4502064555       -0.0888891799        0.9829111311
 H          4.3936206921       -0.7908905531        0.3116573339
 H          5.3943530343        0.0258845200        1.1567051507
 O          2.0983513080       -1.8388239413       -2.0697547433
 H          1.4864835549       -1.3952792945       -2.6981085874
 H          1.7096188650       -2.7080528543       -1.8731670666
 O          0.0742019982       -0.7708196567       -3.4122375754
 H         -0.5545174089       -1.5039251145       -3.3225357978
 H         -0.4294363428        0.0248233328       -3.1674982344
 O         -3.9875680289       -1.2772735851       -2.1214395917
 H         -4.4723822955       -2.0933688118       -1.8729409427
 H         -4.1292733561       -0.6337312380       -1.4046600337
 O          1.0399339990       -0.8641096887        2.7541216863
 H          0.5851577747       -1.6148229629        3.1641669046
 H          0.4576050324       -0.0966085431        2.8641143551
 O         -0.5036868020        1.4230240738        2.9094144826
 H         -1.1328665292        2.0295516057        2.4793791189
 H          0.3011724402        1.9410691636        3.0775856781
 O         -1.5187211532        1.3043176655       -2.4688565113
 H         -1.7472896901        0.8879101733       -1.6111864351
 H         -2.3275939036        1.2203242232       -3.0371249743
 O          0.9257178320        2.4745711598       -3.2641206914
 H          1.5532246844        1.7367238259       -3.1812919041
 H          0.0371644709        2.0979626923       -3.2546344669
 O          2.6407583768       -2.5363400563        1.1358810566
 H          3.0843017722       -3.1971535737        0.5693302439
 H          3.1436738965       -2.5500517116        1.9765931371
 O          3.3624073477        0.2167549982        3.4088960658
 H          2.5372689755       -0.3056363014        3.3133184544
 H          3.7729425882        0.1743230432        2.5211392272
 O          2.0700960377        2.4792460143        3.0721113819
 H          2.5844737283        1.6586084852        3.3092081899
 H          2.3452624604        3.1587895697        3.6872324665
 O         -1.4270429212        3.5166758880       -0.8649518303
 H         -1.4328190106        2.7914897398       -1.5188371802
 H         -0.4988896290        3.7941198394       -0.8009414275
 O         -4.4041903326        0.7304624154       -0.2503775283
 H         -4.2765413958        1.6711431799       -0.5137218477
 H         -4.3645677109        0.7549838386        0.7254478201
 O         -2.3108418698        3.0322444118        1.6284729604
 H         -2.6169219253        3.9121753209        1.8525712717
 H         -2.0254555628        3.0843423342        0.6860864083
 O          1.3361105838        3.7896357402       -1.0229058624
 H          1.2244529718        3.3217377804       -1.8938883855
 H          1.9016147687        4.5378997164       -1.2221459862
 O         -1.8281226642       -2.6481335232       -2.7232854993
 H         -2.1287635737       -3.2143384435       -3.4355957510
 H         -2.5920429280       -2.0476956500       -2.5235494728
 O          0.1905513410       -3.5420645665        1.1272254774
 H         -0.1755066296       -3.4956951931        2.0220546933
 H          1.0814218844       -3.1186505085        1.2006862359
 O         -2.4369749034       -0.7114301438        3.0519954186
 H         -1.7783182684       -0.0290659722        2.8573389669
 H         -2.7714932149       -1.0694262692        2.1975678838
 O         -0.7863911235       -2.7303278297        3.5955446169
 H         -0.9528129264       -3.1761673043        4.4241988141
 H         -1.4878530182       -2.0435327757        3.4929411303
 O         -3.4574137799       -1.7241857776        0.8018370487
 H         -3.0594180536       -2.5597630668        0.4801692142
 H         -4.4291407614       -1.8238927975        0.7549736514
 O         -6.8927026372        0.3425212123       -0.9488155095
 H         -7.4572584951        0.6484691259       -0.2343796649
 H         -5.9666848358        0.4572354583       -0.6120078173
 O         -2.1709502221       -3.8166163824       -0.2686927755
 H         -1.9338786939       -3.4572052056       -1.1443868061
 H         -1.3560671409       -3.8030755272        0.2593780501
 O         -6.1544672501       -1.9003300076        0.5558902934
 H         -6.4985233328       -1.4528119809       -0.2334963525
 H         -6.4550599303       -1.3309847668        1.2833003981
 O          3.0544974505        2.2963947569        0.4752068159
 H          2.7470633573        2.4407388082        1.3846477757
 H          2.4858609083        2.8587254781       -0.0891539408
 O          4.6714181384       -1.7516718270       -1.2052104764
 H          5.1463956537       -1.0415885729       -1.6802673255
 H          3.7763662268       -1.7674080663       -1.5914946623
 O          3.0151455610        1.0316365925       -2.2724955105
 H          3.7843424071        0.6082102970       -2.6622376342
 H          3.2922220522        1.9471123005       -2.0882343693
 O          5.6737826411        2.1598610140       -0.3139111844
 H          6.2888443495        1.7723894493        0.3167481818
 H          4.7780451450        2.0889248712        0.0838112634
 O         -4.2599744998        1.2339692468        2.3964069971
 H         -3.7444038641        0.5619699492        2.8750711965
 H         -3.6317306928        1.9442947106        2.1688477644
 O          5.7912866494        0.4173401103       -2.3390557533
 H          5.7654007536        1.0760199254       -1.6023270599
 H          6.6888627083        0.4059597542       -2.6706454065
 O          4.3981246906       -2.4208119360        3.1558424115
 H          4.2857892300       -1.5472370940        3.5541147804
 H          5.1491830974       -2.3675451180        2.5464661606
 O          6.2274317488       -2.5478170953        0.9620122329
 H          6.4027129159       -3.4895203230        0.9952179189
 H          5.6615649522       -2.4082160896        0.1820271181
 O          7.1867346944        0.0397736982        1.2521527596
 H          7.1331571598       -0.9210381698        1.1122502971
 H          7.7677820468        0.1760795713        2.0017335062
 O         -3.7317251947        0.8738421466       -3.7903138809
 H         -3.9188482796       -0.0163230718       -3.4557909111
 H         -4.4717530195        1.4217352584       -3.4730844191
 O          1.0551366658       -4.2954450232       -1.3595536914
 H          0.7249514626       -4.1561672002       -0.4538181636
 H          0.4003788088       -4.8233862858       -1.8176682271
 O         -6.8383374981        0.3370276232        2.0115803244
 H         -7.3829898684        0.4705848242        2.7869775822
 H         -5.9814126567        0.7573474004        2.1995078640
 O          3.7566666144       -4.3550226901       -0.5466850160
 H          4.2276875909       -3.8058248297       -1.1810835939
 H          2.9172070925       -4.6005791427       -0.9592010598
 O         -5.9125528358        2.1335045559       -2.7270831045
 H         -6.3467032820        1.4800125542       -2.1360583874
 H         -6.5355516968        2.2988262095       -3.4311054497
 O         -4.8863916781       -3.6502568215       -1.2481751064
 H         -5.5152927746       -3.4705591391       -0.5397377467
 H         -4.1152166314       -4.0660110235       -0.8445941726
 O         -4.2324212611        3.3086524527       -0.8463503925
 H         -3.3592320091        3.6457327396       -1.0789306223
 H         -4.7699088339        3.2718596285       -1.6480771090
 O          4.0295109580        3.6050373625       -2.0546548234
 H          4.3898013073        3.7687854839       -2.9265866168
 H          4.7711447294        3.4153675695       -1.4650663448
