  376

 H         -0.0000000000        0.0000000000       -0.0000000000
 O         -0.6788660124        0.7273781340       -0.2272674075
 H         -0.2571610142        1.2976944730       -0.9955214593
 H         -1.5484758546        0.3449573410       -0.6286685973
 O          2.5894912427        0.2868066985       -2.2019136016
 H          3.3462685336        0.8769516219       -1.9991742196
 H          2.5113007592        0.2861017204       -3.1652869724
 O          0.4543584355        1.9621548197       -2.0699658907
 H          0.9414594218        1.1709721732       -2.3765367497
 H          1.1195821108        2.4851566979       -1.5485244705
 O         -4.6252965957        1.0010214746        0.3122446803
 H         -5.1733999835        0.5923530802        0.9947479570
 H         -4.0567644945        1.6682617302        0.7485742925
 O         -2.8359719495        0.1506795273       -1.3482358809
 H         -2.8237626852        1.0242379534       -1.8040996639
 H         -3.5343044423        0.2622692963       -0.6651646030
 O          0.9143780092       -1.1064800266        0.4628269893
 H          1.3105504125       -1.6932254324       -0.2022521295
 H          0.3877106606       -1.6556759429        1.0824509842
 O         -2.8563900656        2.5363511567        1.5804002053
 H         -2.3009964176        3.1105161815        1.0333793548
 H         -3.2275258646        3.0781923132        2.3053698017
 O          0.5024640322        2.1364375892        1.6188418094
 H          1.3691571636        2.5258300299        1.8514909086
 H          0.5345621404        1.2139383323        1.9265862399
 O         -1.9841771210        0.1401896379        2.3445013332
 H         -2.2007414989        1.0436219328        2.0341720858
 H         -1.3932815034        0.2330875980        3.1080560927
 O          2.2521754299        2.9522236304       -0.5333886704
 H          2.5053368833        2.1533968854       -0.0260377020
 H          1.9292758787        3.6114082470        0.1076060081
 O         -0.0503844935       -0.6433325754       -2.5561358876
 H         -0.4280494066       -1.3254134085       -1.9702688648
 H         -0.8118959643       -0.3613399751       -3.0990470575
 O         -1.1823236470        2.3205109600       -4.2693777697
 H         -0.6772325058        2.4747703547       -5.0795245198
 H         -0.5781791457        2.3160588157       -3.5109711244
 O          2.9564972664        0.7084087414        0.8122021409
 H          2.2321083916        0.0720447697        0.6953060993
 H          3.6978384942        0.3609394684        0.2751251648
 O         -0.9690701532        3.6702503844       -0.0571759696
 H         -0.4137417469        4.1402554293       -0.7112968013
 H         -0.3684003207        3.1061012891        0.4580208414
 O          1.0399776197       -0.0522406357        3.0580071534
 H          1.3108709128        0.5964683777        3.7374402171
 H          1.8453715466       -0.4461917954        2.6798405174
 O          3.1355232000       -1.6354115387        2.3376725138
 H          4.0610797169       -1.5808704118        2.0483909968
 H          2.7420578201       -2.3676117456        1.8208873301
 O         -2.9921850172       -1.6906841335        0.7653223857
 H         -2.8901803078       -2.5494158571        1.2131422910
 H         -2.4762712995       -1.0465214260        1.2851855982
 O         -1.4338211047       -2.3945813475       -1.1801430075
 H         -1.9891959216       -2.7332194684       -1.9031875799
 H         -2.0529887238       -2.0687836866       -0.4846763160
 O          2.5544052369       -2.2062869276       -1.3530162518
 H          2.9132005720       -2.6337566193       -2.1500137389
 H          2.5963833041       -1.2501143711       -1.5882321356
 O         -0.5774959618       -2.6432678551        2.0156366308
 H         -0.4300147509       -3.5985471885        1.9423650862
 H         -1.0340184123       -2.5081524569        2.8553640122
 O         -0.1378368547       -5.3489157314        2.1419192407
 H         -0.7762943458       -5.9490667758        1.7218759865
 H          0.7403067516       -5.7798613060        2.1140927864
 O         -0.8138487936        3.2182477565        3.5873013685
 H         -1.0569118835        2.4638995938        4.1447239081
 H         -0.3968895918        2.8256274242        2.7830449243
 O          1.4195387428        0.8861975071       -4.6287034879
 H          0.6110406227        0.5007098033       -5.0065529755
 H          1.9593990621        1.1109268623       -5.4093542143
 O         -3.9418445097       -2.0663669302       -2.3849016739
 H         -4.8533905194       -1.9754154761       -2.0485515902
 H         -3.4943652348       -1.2365779041       -2.1396206431
 O         -0.6319627441       -6.6634869113       -0.9865957429
 H         -0.3446042953       -5.7376153019       -0.7856016051
 H         -1.4269084665       -6.8010178710       -0.4628155900
 O         -2.1718877939       -0.0739950260       -4.0732720696
 H         -3.1238739651        0.0171201041       -3.9119293513
 H         -1.8663658807        0.8411066934       -4.2737699499
 O          0.2724769437       -4.2270728080       -0.6489545192
 H          0.7831351438       -4.1736088598       -1.4809404731
 H         -0.4243763899       -3.5311371370       -0.7344553891
 O          1.2572294488       -2.0391735919       -4.3039240612
 H          0.9516903783       -1.3999001344       -3.6096087133
 H          1.7906788868       -1.5624752720       -4.9569752698
 O         -1.7869037067       -2.8782647520        4.5768054390
 H         -1.4701806664       -3.8083190099        4.7027139811
 H         -2.7310441068       -2.9750680556        4.3625708701
 O          4.0158373941        0.8668763980        3.4063864181
 H          3.7239734410        0.6419960922        2.5051004817
 H          4.2210419581        0.0554720162        3.8856810163
 O          4.5567232187        1.9947137770       -1.7552925582
 H          5.4757733678        1.8402301940       -2.0166830582
 H          4.5895901239        2.2959215817       -0.8314627518
 O         -5.6493116839       -1.5298041636        1.0836723729
 H         -4.6852731451       -1.5408975129        0.9072987512
 H         -5.8659083497       -2.4265761910        1.3857205370
 O         -1.2176614301        0.7269567375        4.8211816763
 H         -2.1605274795        0.7219112474        5.0692585296
 H         -0.7571990178        0.4114197556        5.6153374556
 O         -0.4626139187       -0.0611562111       -6.3453434814
 H         -0.0441723437       -0.7641492377       -6.8835407740
 H         -1.4191382658       -0.2434411939       -6.3689619331
 O          4.6522188587       -2.9353595807        0.1505499345
 H          4.5858036694       -3.7532319175        0.6701568049
 H          3.7814687306       -2.7813011192       -0.2818576024
 O          2.8277471542        2.9938185641        2.5315560997
 H          2.8285920768        2.4354743472        3.3155336670
 H          3.1262784703        3.8845915764        2.8020649467
 O          0.5933051355        4.8177106250       -1.9382013255
 H          1.2478208940        5.3715617315       -1.4776737824
 H          0.0850050065        5.4541233343       -2.4799017727
 O         -6.3904928276        1.0609566977       -1.7384411272
 H         -5.7046007823        1.1831140519       -1.0516992188
 H         -6.5497551021        1.9645249834       -2.1257874228
 O          1.6609416813        3.5852118652       -4.1374863632
 H          1.3762970421        3.9228692561       -3.2636590945
 H          1.4475969350        2.6331944703       -4.1650241657
 O         -2.6829462039        2.6812363562       -1.8055330845
 H         -2.0100404759        2.9980546158       -1.1662320126
 H         -2.5793872611        3.2467911999       -2.5968605659
 O         -3.1360474709       -5.0867978213       -0.8426847076
 H         -2.6707595815       -4.5716979629       -1.5190752889
 H         -4.0783000443       -4.8343266500       -0.9369822144
 O          5.0730455492       -0.3504181302       -0.3728484662
 H          5.0761233065       -1.2639383013       -0.0373622991
 H          5.8077866032        0.1304289011        0.0553555158
 O         -6.4158111980       -1.6929479139       -1.4133606495
 H         -6.2363134960       -1.5499361190       -0.4500524370
 H         -6.7412456308       -0.8434988133       -1.7318298989
 O         -3.0146485590       -4.1816429679        1.6393465145
 H         -2.9176626930       -4.6253410209        0.7689742878
 H         -2.9124635197       -4.8520877118        2.3328900005
 O          1.6740467839        1.6108457737        5.0872411387
 H          1.9273960529        0.8384364285        5.6427674714
 H          0.8898879459        2.0153558286        5.5252729238
 O         -4.2068941499       -0.8720356049        3.4685650290
 H         -4.9732121183       -0.4478164657        3.0276531096
 H         -3.4021425761       -0.5434562707        3.0068113535
 O          0.8418979624       -2.0919461213        4.6775155384
 H          0.8107498207       -1.3751033161        3.9935567633
 H         -0.0771992979       -2.3540468198        4.8039283373
 O          1.4668599526        4.8895976503        1.1359458902
 H          1.4293503949        4.9097337566        2.1068596671
 H          0.7684009344        5.4963502617        0.8203159158
 O         -2.2293708079       -4.0151410985       -3.2146893577
 H         -1.8925729205       -3.3874158821       -3.9068157070
 H         -3.1664303263       -4.1884718955       -3.4653296047
 O          2.2057758356       -3.8079510791        1.0790139863
 H          1.3620095159       -3.9277326068        0.5984863646
 H          2.1193241568       -4.2157106465        1.9566210391
 O          1.4851563199       -4.4102313761       -3.0603333550
 H          1.4330627056       -3.5742034322       -3.5688044714
 H          0.7704441050       -5.0016282348       -3.3944441628
 O          4.1493785007       -1.5201886060        4.8409077095
 H          3.6342059146       -1.7160269622        4.0295934632
 H          4.7712406495       -2.2471489941        4.9210049906
 O          2.3883796471       -4.1357451806        3.7475350161
 H          3.3479158831       -3.9542041785        3.7507884418
 H          1.9157165296       -3.3230602468        4.0156568774
 O         -0.5247371849        6.5110496970        0.3755260284
 H         -1.0611607220        6.2343476660        1.1354787307
 H         -1.0989152257        6.4002198851       -0.4059384392
 O         -2.1911220812        6.4281879088       -1.7447095117
 H         -2.4647613019        5.7158630952       -2.3566395913
 H         -1.7030180119        7.0417246736       -2.3056534724
 O          4.4462645843        0.0170434045       -4.3501801961
 H          5.2674822472       -0.1776869445       -3.8600286720
 H          4.3881960462        0.9896646338       -4.4246822143
 O          3.9524704804       -2.7449939855       -3.5764987394
 H          4.0848423185       -1.8121029801       -3.7843319988
 H          3.6045772190       -3.1712542791       -4.3832557935
 O          4.6518812529       -5.4238814779        1.4035453004
 H          3.7812261662       -5.7677839797        1.6851830945
 H          4.8826232103       -5.9032289400        0.6053104430
 O          6.3552540786       -0.8044283785       -2.6497828828
 H          5.7654504867       -0.6032715555       -1.8851839383
 H          6.4579935888       -1.7753125657       -2.6158214313
 O          6.9454963972        1.3081748061        0.6339737170
 H          7.2690198427        1.1030503007        1.5188873602
 H          6.2389157659        1.9734308528        0.7638807734
 O         -2.6140005110        4.5958375512       -3.6542776294
 H         -1.8779690125        4.6065927676       -4.2885710311
 H         -3.3616788976        4.1494680311       -4.1057309816
 O          4.8627990111        2.9675997218        0.7909232080
 H          4.1742994964        2.6652365555        1.4124885311
 H          4.5841073311        3.8880228868        0.5787700121
 O         -4.8197526362        3.7900390732       -0.6337552931
 H         -4.4776791899        4.6424046498       -0.2943025565
 H         -4.0572490618        3.3290091903       -1.0464819918
 O         -4.1247153577        4.0171978264        3.4362841031
 H         -3.7398522556        4.8789737062        3.2350315290
 H         -4.9190757914        3.9210859202        2.8366699474
 O         -4.8023626957        0.4452544131       -3.7759127899
 H         -5.4255974002        0.5909473137       -3.0288242622
 H         -5.1976345109       -0.2036643905       -4.3645948427
 O          3.2011319903       -5.2972021144       -1.0485284894
 H          2.9290014932       -4.7848162918       -0.2650802334
 H          2.7108511490       -4.9093242477       -1.7846165735
 O          2.1850458205       -0.6253577053        6.4326583692
 H          1.6361280111       -1.2310772512        5.8832849645
 H          3.0898772671       -0.8559441380        6.1703248828
 O          5.0970250359       -3.7300275883        3.5151096948
 H          5.4479818585       -2.9667452249        3.0197724740
 H          5.1943998218       -4.4824867511        2.9181515695
 O          5.8732873918       -1.4360723641        2.2068351375
 H          6.4978645419       -1.6908463497        1.5061666704
 H          6.2316090782       -0.6362324491        2.6227000043
 O          3.6158853211        4.6209366940       -2.2072335206
 H          4.4580040982        4.3051170567       -2.5757801236
 H          3.1914680475        3.8473637327       -1.7891833854
 O          1.3163531301        4.8158813309        3.8894541604
 H          0.5624650464        4.2036945358        4.0201195589
 H          2.0108378986        4.6034478816        4.5287749629
 O         -6.0040086249        3.4223897484        1.7543063747
 H         -5.6429329061        3.5436201475        0.8529398994
 H         -6.0430542146        2.4663238840        1.9141180709
 O         -4.4745729781        3.0113044870       -4.7109881665
 H         -4.0651395707        2.8701215200       -5.5847076400
 H         -4.5226643621        2.1157349917       -4.3302118722
 O          3.9729046192        5.4283035300        0.2940286233
 H          3.0506982910        5.3535339910        0.6292338081
 H          3.8508527648        5.4045691739       -0.6783914769
 O         -0.9219344990       -5.3408702385        4.6711803578
 H         -0.1421888383       -5.4636384925        5.2546386475
 H         -0.5575801285       -5.3486548542        3.7543670740
 O         -1.2726532066       -2.4349633469       -5.0086844621
 H         -1.7301072451       -1.5898982518       -4.8268088183
 H         -0.3287334207       -2.2547308376       -4.8027217663
 O         -1.9192615190        5.5184152186        2.5812992855
 H         -1.5595942718        4.6678954653        2.8977326270
 H         -1.3863933194        6.1999731112        3.0498422987
 O         -0.1979437154        2.8121579732        6.5654406892
 H         -0.0383311190        3.7678303711        6.5736466243
 H         -1.1292280454        2.7719607323        6.2755643984
 O         -3.8013337920        0.4938224201        5.6831079533
 H         -3.5016583325       -0.1866118290        6.3227573253
 H         -4.0489784187       -0.0207859798        4.8770426992
 O         -6.1153730684        0.7567016451        2.6160947051
 H         -6.2821877460        1.1969331463        3.4781290984
 H         -6.9543704755        0.6532841761        2.1365077181
 O         -5.7383953073       -4.3541074603       -1.0662024589
 H         -5.9790761526       -4.4977861103       -0.1416192481
 H         -6.0906145145       -3.4777098536       -1.2850839516
 O         -5.6899756177       -4.1605521652        1.7312852274
 H         -4.7035311151       -4.1525610894        1.7217744173
 H         -5.9479030005       -4.3793623141        2.6264844766
 O         -2.8061740684        3.1081149276        5.7212256573
 H         -3.2747300842        2.2913690713        5.9334789936
 H         -3.2120439804        3.4442913914        4.9069100742
 O         -2.5120354702       -1.4949906361        6.8861365702
 H         -1.7523465813       -1.0347575920        7.2665433043
 H         -2.1768461392       -1.9889336203        6.1178945011
 O         -4.4899849560       -3.3540349862        4.3314597352
 H         -4.8046572289       -3.2061388064        5.2244188328
 H         -4.5231077776       -2.4744329166        3.8878517480
 O         -0.2736371566        0.1499632318        7.3318456144
 H          0.6441074610       -0.1487620886        7.3697897395
 H         -0.2657639593        1.1017911381        7.5014274062
 O          3.2269172784        3.6807612058        5.6188524956
 H          2.7214476437        2.8492879386        5.4602667164
 H          3.0189202963        3.9690488390        6.5057749393
 O          1.9019723175        6.9680974167       -0.8316591964
 H          2.0393749649        7.4845232589       -1.6273509330
 H          1.0398207915        7.2062415452       -0.4616560169
 O          1.8827115777       -7.5221512564       -0.3306587970
 H          2.4222892061       -6.8268171862       -0.7644516208
 H          0.9658016790       -7.3704820461       -0.6227545982
 O         -5.9582737543        2.0845067558        4.9001978614
 H         -5.2997717852        1.5705441380        5.3894134704
 H         -5.5324373442        2.9049851635        4.6308598054
 O          6.1087703902       -3.4191103300       -2.0459750707
 H          5.5878976280       -3.3516977349       -1.2163562778
 H          5.4290173958       -3.4650689696       -2.7374621146
 O          2.2341868223       -6.5864061876        2.0307169464
 H          2.1027789595       -7.0421275327        1.1411614607
 H          2.3632704644       -7.2631631957        2.6929056589
 O         -3.3318249163       -5.9277891922        3.6836999967
 H         -2.5228670646       -5.8968222924        4.2271436819
 H         -3.9175560715       -5.2504053912        4.0439443497
 O         -0.5543470726       -5.9916692371       -3.6365346382
 H         -0.5160915291       -6.4584930884       -2.7837715176
 H         -1.2318591971       -5.2800694090       -3.5100742321
 O          7.5163554878       -1.8915178563        0.0649763178
 H          7.3036976554       -2.5799218822       -0.5761170857
 H          7.9323923605       -1.1765757897       -0.4194715285
 O         -3.1035466518       -0.6338754862       -6.6857473889
 H         -3.6126168305       -1.1539537912       -6.0240763840
 H         -3.1710182175       -1.1094426324       -7.5123209054
 O         -4.5251694232       -2.1150347731       -4.9567581786
 H         -4.7783016261       -3.0268526607       -5.1162979736
 H         -4.2312776113       -2.1046223732       -4.0110353026
 O         -0.0887458297        7.0527955465        3.6913683731
 H          0.3918369779        7.6109858051        3.0678503857
 H          0.5343928855        6.3084254842        3.8349428449
 O          3.1077380214       -1.1917591001       -6.3080394714
 H          3.6840715535       -0.7375167475       -5.6608842895
 H          3.3956867674       -2.1147673787       -6.3357943477
 O          0.3301837016       -4.4872912721       -5.9992370338
 H         -0.4055143290       -3.8895775959       -5.8008181079
 H          0.1252318937       -5.3158075254       -5.5547349266
 O          3.0512230880       -3.8973910199       -5.8602258860
 H          2.0972958746       -4.0801188299       -5.9317562725
 H          3.4478392374       -4.7321843927       -5.5664068735
 O         -0.0208311387        2.4898953391       -6.8211819672
 H          0.9180858370        2.5647434113       -7.0231843938
 H         -0.1847449428        1.5196563118       -6.8052615495
 O          4.1995814273        2.7014200863       -4.7563632807
 H          4.9264692134        3.2018966891       -4.3618275304
 H          3.3750975100        3.1227486856       -4.4457116783
 O         -4.7155026181       -4.7702327554       -3.7583181411
 H         -5.2693539014       -4.5842055453       -2.9908259585
 H         -4.4189713974       -5.6931261265       -3.6387197011
 O         -2.1344478184       -7.0595038223        1.4177536002
 H         -1.9669787780       -8.0007522271        1.4289442424
 H         -2.7555442672       -6.8715802093        2.1378338294
 O          4.1771474566        5.2858501676        3.0306842484
 H          4.4614769072        5.5418602653        2.1458247341
 H          4.8657099072        4.7095362653        3.3941735647
 O          3.6500391916       -5.8301817057       -4.0811792937
 H          4.2754937378       -5.9209229377       -3.3614964078
 H          2.8480619668       -5.4397039345       -3.6954188793
 O         -0.3966023251        4.8881483553       -5.3712246192
 H         -0.5543425890        4.4411883713       -6.2067912939
 H          0.3959475720        4.4550822732       -4.9887781021
 O          2.7556696931        1.6647330530       -6.8425763323
 H          3.4806799867        2.0963136271       -6.3639055960
 H          3.0694627336        0.8076944941       -7.1458801404
 O          5.4668139676        3.0042850319        4.0503841208
 H          4.8689199390        2.2995697988        3.7192504194
 H          5.0385890351        3.3069112141        4.8607659692
 O         -3.7591983964        5.9518633162        0.4807300480
 H         -3.1223385958        5.8307990674        1.1972539777
 H         -3.2855250221        6.3443486793       -0.2657650506
 O         -0.1599899454        6.8765517869       -3.5098379611
 H          0.8068428338        6.9420697517       -3.6316522259
 H         -0.4781369469        6.4346548044       -4.3085207621
 O         -6.4625186575        3.4657334814       -2.7356982512
 H         -5.9204409731        3.8208913197       -2.0044547635
 H         -5.9071596729        3.4955804958       -3.5265984704
 O          7.2722788106        1.6525302496       -2.1328290324
 H          7.4357196863        1.5942615990       -1.1816126354
 H          7.2157272234        0.7418851358       -2.4657645166
 O         -7.8543571262        1.2578570182        0.6324154902
 H         -7.8916037308        2.2148618159        0.7061729425
 H         -7.5350454109        1.0725068091       -0.2655349723
 O          0.7839445720       -2.0266812307       -7.6242804143
 H          1.6735245337       -1.7531575432       -7.3675534211
 H          0.6725617377       -2.9325912028       -7.3197351031
 O          6.1280840237        3.9669021092       -3.1676399358
 H          6.6618349520        3.1678855385       -3.0524200481
 H          6.3941775125        4.5225014267       -2.4129868159
 O          2.4936304278        6.5028041749       -3.7744008551
 H          2.8893087406        5.8497420241       -3.1625492525
 H          2.5937252003        6.1227265203       -4.6477155959
 O         -3.0402247094        2.1882759251       -6.8491386775
 H         -2.1060097888        2.3938191046       -6.9421417178
 H         -3.1141981389        1.2240013675       -6.7939043954
 O          2.1892521593        7.4404720673        2.1387608174
 H          2.4141647244        7.3493456661        1.2069780082
 H          2.7886820438        6.8717033415        2.6315400598
 O          7.0013650226        0.8150394300        3.3680473815
 H          7.2839359954        0.4165055106        4.1900236577
 H          6.5910311976        1.6684197620        3.6055726266
 O          6.5979303897        4.9123343437       -0.6631272281
 H          6.6818587095        4.1171098229       -0.1319564203
 H          5.8678074643        5.4207023436       -0.2947898785
 O         -0.7450938893        5.3541511610        5.9436377610
 H         -1.6384041230        5.0184615751        5.8256096797
 H         -0.6546342439        6.1304307020        5.3815941390
 O          1.4163039492       -5.3392694126        5.8974118268
 H          1.8750172759       -5.0294019245        5.0836375529
 H          1.5218285090       -4.6420998807        6.5453412469
 O         -3.3488135128       -6.9363285404       -2.8974118806
 H         -2.4861516756       -7.0009792619       -3.3169297820
 H         -3.2161592731       -6.5076463684       -2.0350613054
