  102

 H         -0.5425054112       -1.1597996586        0.9180873602
 C         -0.6112510051       -0.5412956740        0.0100749182
 H         -0.5391308395       -1.1969144470       -0.8712436601
 C          0.5103658647        0.5037878337       -0.0094871834
 H          0.3911098457        1.1518924074        0.8600966287
 H          0.3944399221        1.1152669958       -0.9056411631
 O         -1.7891825170        0.2100258093       -0.0077307041
 H         -2.5646581753       -0.3620747642        0.0026734601
 N          1.8637421187       -0.1172780950        0.0059475207
 H          1.9871272141       -0.7237037740       -0.8163106227
 H          1.9839787968       -0.6890763206        0.8531041602
 H          2.5930828886        0.6072400316       -0.0077051381
 O          4.3228526402       -0.6126013214        2.5889849883
 H          3.4407442895       -1.0281130278        2.6036273009
 H          4.6590763267       -0.6158723319        3.4851511249
 O          1.5437519844       -0.8391086032       -2.6131011405
 H          0.7800784142       -0.3634486301       -2.9785352623
 H          1.3703750533       -1.7832767232       -2.8265984243
 O         -1.9561500300       -1.8818107600       -2.5716453328
 H         -1.4662604392       -1.2505400281       -3.1195941246
 H         -2.7836491594       -1.4196321359       -2.3611689500
 O          1.7535787841       -1.4679126279        2.3403910866
 H          1.2658167762       -2.2813339802        2.0933456288
 H          1.1195314209       -0.9177415093        2.8356210168
 O         -4.0941368628       -0.3145714652       -1.7334040395
 H         -4.8951426407       -0.8211259943       -1.5618836709
 H         -4.1783051637        0.4904369607       -1.1966703284
 O         -0.2971436431       -0.0274444049        3.4466234779
 H         -0.8084325925       -0.8569606946        3.5076995207
 H         -0.9411233474        0.6364281346        3.1471464941
 O         -2.0005998125        2.0661957324       -1.9886986543
 H         -2.9179342457        2.3177332524       -2.1155538294
 H         -2.0026066968        1.3978938365       -1.2739990881
 O          2.1263328695        2.7570725001       -1.1093123166
 H          2.8388842707        3.2690819493       -0.7259119179
 H          2.5062345320        2.3015575552       -1.8994842708
 O         -0.4874299968        3.5814958770        1.8175394729
 H         -0.5781234232        4.4630230298        2.1768215650
 H         -0.4212665625        3.7007180137        0.8207250408
 O         -1.9213039764       -3.4031743852       -0.2502950815
 H         -2.6525228671       -2.9411754709        0.1762639185
 H         -1.8894937039       -3.0464838451       -1.1510530574
 O         -2.2024710672        1.6130084339        2.2329676088
 H         -1.6654429758        2.4318430779        2.1773896445
 H         -1.9996146931        1.1168649157        1.4108814998
 O         -0.6944034449        0.3758044057       -3.6626391458
 H         -0.6213466851        0.6992606142       -4.5607552335
 H         -1.1684049459        1.0595790615       -3.1473652733
 O         -4.2955059054        1.7648740919        0.0870158896
 H         -5.1122387588        1.4770665842        0.5211685515
 H         -3.6975265598        2.0236911448        0.7973188063
 O          3.2750550598        1.2288666588       -2.9314929177
 H          4.0729594975        1.0483215582       -2.4035184073
 H          2.7223632187        0.4280682895       -2.8812950838
 O         -0.3023128067        3.8731500631       -0.7385227836
 H          0.5943467392        3.5567937808       -0.9641403794
 H         -0.9196392187        3.3458904876       -1.2706363714
 O          0.2390523764       -3.4826640744        1.3841086601
 H          0.9305875353       -3.8416303396        0.8020819944
 H         -0.5552697819       -3.5092177278        0.8116841124
 O         -3.6477325806       -1.5600467302        0.9628144391
 H         -3.8730902664       -1.0344633379        1.7533647045
 H         -4.4850022818       -1.6794533993        0.4839209566
 O         -4.0880224718       -0.0459017371        3.1982093009
 H         -3.4332299229        0.6543677139        3.0096818145
 H         -3.7485200682       -0.5515054524        3.9405622546
 O          3.7447350265        1.5827468022        0.9948549185
 H          4.2120625520        0.9439464707        1.5595713616
 H          3.0431250191        1.9410331647        1.5665597269
 O         -1.7248318285       -2.3089283853        3.0748504099
 H         -1.0685794861       -2.9761888113        2.8382398287
 H         -2.3673230967       -2.3120498821        2.3553695837
 O          1.9860344125       -4.0081806208       -0.6117616265
 H          2.5897815556       -3.2342518139       -0.7436310297
 H          2.5343105100       -4.7849677215       -0.7074255558
 O          1.6386754202        2.0476680822        2.6693728667
 H          0.9565713099        2.6991920827        2.4355440656
 H          1.2072534665        1.3904448183        3.2250045468
 O         -6.2849295327        0.5722072752        1.6631262531
 H         -7.0222490431        1.0007860462        2.0989474319
 H         -5.6391809087        0.3366708706        2.3524469757
 O          3.5991458470       -1.9738425473       -0.9581490970
 H          3.9215894274       -1.8480515000       -1.8741772272
 H          4.3964637169       -2.0008770283       -0.4121063207
 O          5.3004400080        0.7455972438       -1.1362813013
 H          5.5303693283       -0.0916741875       -0.6920381540
 H          4.8319512680        1.2549831815       -0.4592958584
 O          5.8540876759       -1.4360535526        0.4766652130
 H          5.4228765913       -1.0981474403        1.2855878800
 H          6.7950700568       -1.4234997841        0.6585588522
 O          0.6467440156       -3.3103414356       -2.9192031500
 H          0.9488258947       -3.7323847850       -2.0971351203
 H         -0.3119101066       -3.2439803690       -2.8777142448
 O          6.6353141895        1.0573756584        1.5071342723
 H          6.7737398013        1.3184792306        0.5916076870
 H          6.6294072990        1.8619116048        2.0268557929
 O          4.7623302642       -1.3096731344       -3.2874475817
 H          5.3921361820       -0.6376912543       -3.0082715921
 H          4.1880099631       -0.8999797795       -3.9394973094
 O         -6.1390476355       -1.4811642066       -0.1806346622
 H         -6.3939344705       -0.7438464839        0.4007507639
 H         -6.8811886571       -2.0847569575       -0.2278022424
