  10
 
 C         -2.2832000000       -0.6826000000       -0.0303000000
 C         -1.0948000000        0.2843000000        0.1015000000
 N          0.1769000000       -0.4380000000       -0.0639000000
 H          0.2217000000       -0.8612000000       -0.9890000000
 H          0.9595000000        0.2092000000        0.0100000000
 H         -2.2915000000       -1.1508000000       -1.0173000000
 H         -2.2266000000       -1.4676000000        0.7275000000
 H         -3.2240000000       -0.1438000000        0.1026000000
 H         -1.1717000000        1.0631000000       -0.6621000000
 H         -1.1169000000        0.7558000000        1.0878000000
