19

H -0.694918000 -2.145347000 0.298631000
C -0.240008000 -1.255284000 -0.146497000
C 1.842722000 -0.025314000 -0.298786000
C 1.125592000 1.239863000 0.183843000
C -0.976433000 0.008607000 0.331045000
H 1.847615000 -0.029936000 -1.394374000
H 1.244707000 1.318319000 1.282264000
H -0.936831000 0.011506000 1.439607000
H -0.357784000 -1.331928000 -1.234104000
H 2.883588000 -0.028959000 0.037228000
H 1.582668000 2.129035000 -0.262053000
N 1.194822000 -1.260186000 0.154675000
H 1.323362000 -1.353287000 1.158982000
N -0.278565000 1.173731000 -0.224627000
H -0.762726000 2.024293000 0.043198000
C -2.437610000 0.020666000 -0.106878000
H -2.973477000 -0.846130000 0.289953000
H -2.506084000 0.006912000 -1.197861000
H -2.949504000 0.919482000 0.251830000
