  19
 
 H         -0.6949180000       -2.1453470000        0.2986310000
 C         -0.2400080000       -1.2552840000       -0.1464970000
 C          1.8427220000       -0.0253140000       -0.2987860000
 C          1.1255920000        1.2398630000        0.1838430000
 C         -0.9764330000        0.0086070000        0.3310450000
 H          1.8476150000       -0.0299360000       -1.3943740000
 H          1.2447070000        1.3183190000        1.2822640000
 H         -0.9368310000        0.0115060000        1.4396070000
 H         -0.3577840000       -1.3319280000       -1.2341040000
 H          2.8835880000       -0.0289590000        0.0372280000
 H          1.5826680000        2.1290350000       -0.2620530000
 N          1.1948220000       -1.2601860000        0.1546750000
 H          1.3233620000       -1.3532870000        1.1589820000
 N         -0.2785650000        1.1737310000       -0.2246270000
 H         -0.7627260000        2.0242930000        0.0431980000
 C         -2.4376100000        0.0206660000       -0.1068780000
 H         -2.9734770000       -0.8461300000        0.2899530000
 H         -2.5060840000        0.0069120000       -1.1978610000
 H         -2.9495040000        0.9194820000        0.2518300000
