  101

 H          0.4630927076        1.1941025328        0.8323452958
 C          0.5529035761        0.5095402430       -0.0251092077
 H          0.4633421182        1.0989800596       -0.9466436098
 C         -0.5779259333       -0.5149488604        0.0205351875
 H         -0.4518492549       -1.1270258237        0.9278134321
 H         -0.4840892691       -1.1748678656       -0.8448928487
 N         -1.8603253885        0.1647702475       -0.0623309409
 H         -2.6131021662       -0.5138473280       -0.0751527666
 H         -1.9956541839        0.7570092262        0.7508171932
 O          1.7808081027       -0.1833448059        0.0209869107
 H          2.5006908393        0.4507195084       -0.0567171281
 O         -1.6823373469        1.4506600643       -2.3899800101
 H         -1.7568181584        0.9831998322       -1.5020021616
 H         -0.8169856918        1.2254319992       -2.7669919228
 O          3.7242634900        1.6329078852       -0.1785039083
 H          3.2188370925        2.2640536919       -0.7444885307
 H          4.1634827494        1.0031855769       -0.7986038490
 O          2.2280383100       -1.1881093246       -2.4271795753
 H          3.1877599577       -1.0164427168       -2.3748532740
 H          1.9266337205       -1.0021796990       -1.5139412067
 O          2.0653763529        2.9694178193       -1.7518705497
 H          1.7427527457        2.3622725604       -2.4350537409
 H          1.2626862171        3.3594395710       -1.3627873425
 O          4.6473605070       -0.4855539123       -1.4853588491
 H          4.6707648341       -0.9928995694       -0.6418375529
 H          5.5829012306       -0.4657311452       -1.7767825696
 O          0.9045404951        0.9401285916       -3.3850292388
 H          1.3749955732        0.1154469335       -3.1155273633
 H          0.9692473143        0.9900648263       -4.3391531845
 O         -0.4941833441        3.5372658414       -0.8746582299
 H         -1.0245708299        3.0277402105       -1.5049037991
 H         -0.9660429980        3.4851611548       -0.0348958052
 O         -1.8444962684        2.7778491001        1.5521230587
 H         -2.4647728025        2.7060381349        2.3136560066
 H         -0.9734425803        2.6700376174        1.9591800664
 O         -3.4294939993       -1.0852967840        2.1006030249
 H         -4.1413781939       -0.4130691882        2.1556830521
 H         -2.6935626595       -0.7018025168        2.6079679094
 O         -4.5969499279       -2.1544774396       -0.1574888101
 H         -4.1929441121       -1.9366159036        0.6961792983
 H         -4.9203995882       -1.3015208210       -0.5283481342
 O          4.8630346259       -1.5158137443        0.9828815334
 H          4.0810565572       -1.6642993788        1.5339564007
 H          5.3017368675       -0.7366333142        1.3607338676
 O         -1.5976928845       -3.3385631993        2.0376775494
 H         -1.3354988113       -3.5165442061        1.1130411697
 H         -2.3651970083       -2.7535390056        2.0033020572
 O          2.8865900992        1.3630740915        2.6362751619
 H          2.7795124132        0.3840461879        2.6577463802
 H          3.0349543765        1.5984500293        1.7104492922
 O          2.4518302566       -1.2785479193        2.3822668703
 H          1.7144435952       -1.6626456211        2.8914432471
 H          2.0783673675       -1.0918651288        1.5000061369
 O          0.4059168766        2.1779648494        3.0987918258
 H          1.3514606833        1.9154603624        2.9789426154
 H          0.3777696504        2.7671333025        3.8535870875
 O          0.1742295490       -2.1947452439        3.5492955027
 H          0.2420161376       -2.7498823739        4.3253555407
 H         -0.4584526224       -2.6712465675        2.9344449769
 O         -1.3578713758        0.0767563424        3.5203057116
 H         -0.7394631628        0.8016652576        3.3260501003
 H         -0.8005844097       -0.7077153686        3.6658260013
 O         -4.1214134574        2.3608274176       -0.0513593777
 H         -4.1191150832        2.8419899861       -0.9017472744
 H         -3.2845734781        2.5749966202        0.3828129753
 O         -5.2540564527        0.1831277696       -1.2647782919
 H         -4.8255308601        0.9365245344       -0.8195355775
 H         -4.7771659270        0.0657488277       -2.1175429221
 O         -2.9668777123       -2.6749086123       -2.1506874345
 H         -3.5816609612       -2.5487438069       -1.3785180645
 H         -3.3193358396       -3.4125620680       -2.6495071422
 O         -3.6227961543       -0.2432011722       -3.3311868805
 H         -2.8917537970        0.3680212853       -3.1276033776
 H         -3.3146353324       -1.1214687503       -3.0473550383
 O         -0.9019848639       -3.6387573214       -0.5578052872
 H         -0.1065637484       -3.7899839743       -1.0925098144
 H         -1.5808636463       -3.3202769329       -1.1736898781
 O          5.5933111608        1.0772643444        1.7709367825
 H          5.0376456693        1.4333571403        1.0542368385
 H          5.1114186911        1.2592678568        2.5847051128
 O         -5.2515803486        0.9127541551        2.0398067490
 H         -6.0763128307        0.4992494314        1.7177279197
 H         -4.9769529140        1.5174618015        1.3315765093
 O         -7.1604257284       -0.4225956807        0.6426747263
 H         -6.9998544580       -1.3679150381        0.6980882868
 H         -6.7607098147       -0.1346764605       -0.1931243306
 O          7.2958624306       -0.5543309286       -1.7945373624
 H          7.6091533290       -1.4409848510       -1.6100447448
 H          7.5946872125       -0.0049309379       -1.0397792351
 O         -3.3419119037        2.1096617455        3.6726723279
 H         -2.8041341929        1.3389307944        3.8981852993
 H         -4.1721211193        1.7622957405        3.3151769465
 O          7.9422701008        0.9464639395        0.3637693124
 H          8.0647089841        1.8686938315        0.1340782381
 H          7.2008927399        0.9186531106        0.9904968847
 O         -3.9016962964        3.0660066540       -2.6455990132
 H         -3.0522896035        2.6013794818       -2.7139229059
 H         -4.5253942136        2.5562020405       -3.1666889598
 O          1.3450144646       -3.7860499203       -2.1779935989
 H          1.6532451078       -2.8864255763       -2.3921753392
 H          2.1174386115       -4.2864494392       -1.9134616994
