 xtb: 6.5.1 (579679a)
          10122203153D

 16 15  0     0  0            999 V2000
   -0.4343   -1.2415    0.2436 c   0  0  0  0  0  0  0  0  0  0  0  0
    1.5262    0.1162    0.2713 c   0  0  0  0  0  0  0  0  0  0  0  0
    1.0191    1.3993   -0.2527 c   0  0  0  0  0  0  0  0  0  0  0  0
   -1.4895   -0.2855   -0.3301 c   0  0  0  0  0  0  0  0  0  0  0  0
   -0.4493   -1.1728    1.3441 h   0  0  0  0  0  0  0  0  0  0  0  0
    1.4831    0.1073    1.3720 h   0  0  0  0  0  0  0  0  0  0  0  0
    0.8647    1.5042   -1.3082 h   0  0  0  0  0  0  0  0  0  0  0  0
   -1.3347   -0.2034   -1.4074 h   0  0  0  0  0  0  0  0  0  0  0  0
   -0.6885   -2.2645   -0.0485 h   0  0  0  0  0  0  0  0  0  0  0  0
    2.5767   -0.0563   -0.0250 h   0  0  0  0  0  0  0  0  0  0  0  0
    1.0908    2.2822    0.3488 h   0  0  0  0  0  0  0  0  0  0  0  0
   -2.4851   -0.7271   -0.1533 h   0  0  0  0  0  0  0  0  0  0  0  0
    0.8645   -1.0385   -0.2380 o   0  0  0  0  0  0  0  0  0  0  0  0
   -1.3466    1.0369    0.2461 n   0  0  0  0  0  0  0  0  0  0  0  0
   -1.5196    1.0300    1.2448 h   0  0  0  0  0  0  0  0  0  0  0  0
   -1.9533    1.7136   -0.1994 h   0  0  0  0  0  0  0  0  0  0  0  0
  2  3  1  0  0  0  0
  1  4  1  0  0  0  0
  1  5  1  0  0  0  0
  2  6  1  0  0  0  0
  3  7  1  0  0  0  0
  4  8  1  0  0  0  0
  1  9  1  0  0  0  0
  2 10  1  0  0  0  0
  3 11  1  0  0  0  0
  4 12  1  0  0  0  0
  1 13  1  0  0  0  0
  2 13  1  0  0  0  0
  4 14  1  0  0  0  0
 14 15  1  0  0  0  0
 14 16  1  0  0  0  0
M  END
