  462

 H         -0.5425054112       -1.1597996585        0.9180873604
 C         -0.6112510051       -0.5412956741        0.0100749183
 H         -0.5391308395       -1.1969144470       -0.8712436601
 C          0.5103658647        0.5037878337       -0.0094871838
 H          0.3911098457        1.1518924072        0.8600966293
 H          0.3944399220        1.1152669956       -0.9056411626
 O         -1.7891825170        0.2100258093       -0.0077307039
 H         -2.5646581753       -0.3620747641        0.0026734605
 N          1.8637421186       -0.1172780949        0.0059475206
 H          1.9871272141       -0.7237037742       -0.8163106226
 H          1.9839787968       -0.6890763207        0.8531041604
 H          2.5930828886        0.6072400317       -0.0077051377
 O          0.0652882512       -0.2905561660       -3.9441299362
 H          0.5919097631        0.1777751306       -4.6297902934
 H         -0.3886895789        0.3973682581       -3.4299026267
 O          1.3791696245       -0.1144050714        2.8155632315
 H          1.1613266572        0.3010207566        3.6831229304
 H          0.7850410867       -0.8765970078        2.7503790405
 O          0.8979486492        0.9438334388        5.1518578924
 H          0.1804743257        1.6163201163        5.2480725389
 H          1.7294863702        1.4382872855        5.2933414188
 O         -1.8788077742       -2.7965445418       -1.9433412664
 H         -2.1921194813       -1.9411016534       -2.3242299127
 H         -2.5468961572       -3.0709085012       -1.3104957031
 O          1.9549254656       -1.2152485768       -2.4000522503
 H          1.1870109840       -0.9925986238       -2.9734006904
 H          2.5983571785       -1.6955083230       -2.9539316915
 O         -0.0586012880       -3.4112533729       -5.4464500473
 H          0.0702645842       -4.0352953299       -4.6889322435
 H         -0.0561417077       -3.9548120932       -6.2342605490
 O          2.0916330517       -2.4363338174        1.2737887202
 H          2.0719058260       -2.9019895692        2.1311699721
 H          1.3910743379       -2.8102243988        0.7130559768
 O          2.1981177447        3.2143197685       -0.0027615698
 H          3.0635359136        3.2826829847       -0.4535254334
 H          1.8569967904        4.1227197049        0.0688526156
 O         -2.8570029937       -0.7190113870       -3.1624979035
 H         -2.5681347542       -0.8995577166       -4.0878876156
 H         -2.4374404745        0.1350744251       -2.9156125358
 O          0.4616892456       -3.4148275319       -0.6032366166
 H         -0.3458265770       -3.2374391582       -1.1119885014
 H          0.3709018725       -4.3314774352       -0.2631302806
 O          2.0117690534        2.5728308329        2.4666988922
 H          2.2318245042        2.8397312965        1.5301838231
 H          2.1329748560        1.6182470162        2.5015593325
 O         -3.6174942938       -1.7349223145        0.4129763993
 H         -4.2101743936       -2.1577278872       -0.2318320657
 H         -3.0376724018       -2.4483132403        0.7519875198
 O         -5.4186434079       -0.8618960492       -3.4832648090
 H         -5.6841130197       -0.2703368058       -4.2232480765
 H         -4.4569314532       -0.6782511754       -3.3340864806
 O          4.0414758473        1.0423577420        1.0859966951
 H          4.2377980001        0.2549193075        1.6242206776
 H          4.7006589926        1.0548872043        0.3657945375
 O         -1.9982627027       -0.9737017864       -5.6503233862
 H         -2.0913491355       -0.0039824571       -5.7647143172
 H         -1.0832046325       -1.1262571832       -5.3748033024
 O         -1.7787790075        0.6158029795        3.2351118131
 H         -1.3001946143       -0.2206279633        3.0678881826
 H         -1.9408490854        0.6123997524        4.2000833733
 O         -1.4816850626        1.4137819389       -2.4359500450
 H         -1.7206377905        2.3483066903       -2.5754797738
 H         -1.5956156721        1.2419569479       -1.4861155735
 O         -4.2968306690       -0.1333256066        2.4427528571
 H         -3.4113028259        0.2305361215        2.6473197200
 H         -4.1490151477       -0.7980700272        1.7412482356
 O         -0.6164824509        3.4116417027       -0.5167197975
 H         -0.5187065472        3.2631192540        0.4347633042
 H         -0.7000743346        4.3723841092       -0.6355368257
 O         -0.5626471513        2.9092972097        2.2081137102
 H         -0.9659953485        2.1367995858        2.6393660873
 H          0.4065878648        2.8492683586        2.3772202355
 O         -4.0718097472        1.8318086914       -3.2383306603
 H         -3.7277235413        2.7299055622       -3.1548134401
 H         -5.0209318606        1.9115811065       -3.5071308010
 O          3.0830462362        1.2066879245       -2.2081144137
 H          2.2921470928        1.7818744807       -2.1548157087
 H          2.7698181541        0.2980662887       -2.3662351836
 O          4.5626405255        3.4019702919       -1.2312962145
 H          5.1271164752        3.7584450786       -0.5219716783
 H          4.7983939276        2.4451148578       -1.2727316685
 O          1.0112953057        2.8225922150       -2.5352688211
 H          0.4427961834        3.0158460835       -1.7580879192
 H          1.5914202129        3.6031995676       -2.6213353287
 O          5.6442537476        1.0573347817       -1.0312554228
 H          5.2993867411        0.3608247545       -1.6273861061
 H          6.5743871454        1.1887367993       -1.2974238840
 O          3.8694133114       -0.8447617467        3.0620339107
 H          4.0379121863       -1.7429504600        2.7422207618
 H          2.9056069539       -0.6792396638        2.9665771502
 O          5.2170849849        0.1355154382       -5.0678656848
 H          5.1554037400       -0.3319088158       -4.2163435134
 H          4.5120900886        0.8221041938       -5.0477825538
 O         -3.0553660493        2.1884236573        1.2765820304
 H         -2.2781188427        1.6556714631        1.0575835548
 H         -3.7465540825        1.8147955527        0.7046584159
 O          4.1625652769       -2.4702060279       -0.4565164711
 H          3.4160325533       -2.5672176998        0.1648314881
 H          4.6109133852       -3.3345291273       -0.5188685109
 O         -4.3623227263        0.9896618674       -0.7496432559
 H         -4.1162288364        1.1665557704       -1.6809954700
 H         -5.0287122319        0.2873780712       -0.7530793682
 O         -4.9431352868       -3.0905147962       -1.5214054514
 H         -5.2478054148       -2.4768322274       -2.1978614964
 H         -5.7433244265       -3.5475096986       -1.1698444758
 O          4.6356046698       -3.4185192703        2.1884313392
 H          4.5927792883       -3.5769732213        3.1517618643
 H          5.5530002096       -3.6362387075        1.9495454631
 O         -7.4757554350       -0.8246029514        3.5587864723
 H         -6.9890294924       -1.1271162781        2.7645847218
 H         -7.1010760784        0.0460841234        3.8123462791
 O         -3.0871215547        4.3849597838       -0.1786706676
 H         -3.1747496558        5.1865625288        0.3713072724
 H         -2.8677727763        3.6425331924        0.4228995826
 O          4.7098445657        2.6616086364        3.0912006512
 H          4.4746055742        2.0685833318        2.3419709596
 H          4.5164919507        3.5471163946        2.7352070187
 O          6.4730677799        3.6816973400        0.6630524176
 H          6.5504280521        2.7191123490        0.8315146000
 H          7.0870584332        3.8855101801       -0.0720992657
 O         -0.3161067666       -4.7775566161        2.8754745722
 H          0.4522319163       -4.2297692926        3.1313018339
 H         -0.8403249458       -4.8730978002        3.6879066289
 O          6.6309535177       -1.4853440765        3.7586031356
 H          7.5816409840       -1.5807548403        3.8809033849
 H          6.4259809495       -0.5706348451        4.0391229592
 O         -3.9172349902       -5.4096178229       -2.5062408315
 H         -4.2736140509       -4.5316967461       -2.2585562173
 H         -3.6200428042       -5.3255118528       -3.4188352165
 O         -2.0407882283       -3.7745201938        0.9756252382
 H         -1.8628892198       -4.3773051902        0.2394463196
 H         -1.4660709961       -4.0704133718        1.7009847912
 O          3.2220675869       -5.3625821325        1.0154589761
 H          3.6390332303       -5.7539997595        0.2299038713
 H          3.7488840293       -4.5845584420        1.3072947147
 O         -5.4173880535        3.4872002485       -0.8768519492
 H         -4.6096097082        3.8898218955       -0.4814271681
 H         -5.2461889793        2.5295000350       -0.8360617555
 O         -5.9373079888        1.7180399284        1.4949077504
 H         -5.3163173057        1.0002317285        1.7434605668
 H         -6.7603360597        1.2902128607        1.1755804938
 O         -4.5485775012       -1.1114083583        4.9359199506
 H         -4.7263990586       -0.6422023908        4.0983700126
 H         -5.2527836726       -1.7852845481        5.0495866152
 O          5.8276912268       -1.0696274918        1.0994345378
 H          6.0722018426       -1.4665365797        1.9500985705
 H          5.1887182755       -1.6406414057        0.6260578423
 O          1.9766403799       -3.6070035212        3.6682202511
 H          2.1241109197       -3.1458691139        4.5225453972
 H          2.4439938499       -4.4590215522        3.7402193893
 O          3.6771444710       -6.3691205549       -1.5041273406
 H          2.9576816953       -7.0260998241       -1.5530897279
 H          3.2080326400       -5.5269462757       -1.7204701735
 O          2.3497816089       -4.2412831951       -2.2195419896
 H          2.8074494805       -3.6441809174       -2.8426211025
 H          1.8093224645       -3.6994002603       -1.6045405984
 O         -0.6095559771       -1.8180171094        3.1728242710
 H         -0.4025064502       -1.8331333207        4.1303256222
 H         -1.4662351658       -2.2798724744        3.0946135864
 O         -6.5496247583       -1.8989195306        1.2609602990
 H         -7.4520487509       -2.2407961488        1.1197686006
 H         -6.3764820710       -1.3516284544        0.4794777607
 O         -4.9258461921       -3.9073753734        2.1375501877
 H         -4.6686980945       -4.4334285923        1.3611058056
 H         -5.5252203828       -3.2096071241        1.8132433283
 O          2.5579035451        5.0429879102       -2.7733940425
 H          2.9857529815        5.3634512596       -1.9523102808
 H          3.2814428715        4.9053609702       -3.3908082711
 O         -7.8866402452        1.5301903600       -1.4141141859
 H         -8.7643650575        1.1927163208       -1.6811743664
 H         -8.0020940566        2.2251694064       -0.7431625966
 O         -5.1446320407       -3.2296252714       -4.7119237604
 H         -5.2606326814       -2.3565502293       -4.2790941137
 H         -4.2081007166       -3.4840409462       -4.5778342717
 O          5.1246640643       -1.0041542272       -2.5884920871
 H          6.0887415108       -1.1254086513       -2.6532091260
 H          4.7899256183       -1.5975242703       -1.8983069203
 O          3.5078519210        2.0665219740       -4.6296914699
 H          4.0201168546        2.8898490566       -4.5585005251
 H          3.3807906591        1.7660770345       -3.6887135568
 O         -3.1346712145        3.1563978237        3.8448268563
 H         -3.0136496346        2.6285403221        3.0326901686
 H         -3.6627992740        2.6241824317        4.4738503484
 O          2.3818169959       -2.4229253717        6.0128296348
 H          2.9038466315       -1.5925096601        6.0255724158
 H          1.4759352689       -2.1817400815        6.2399669296
 O         -2.4856125733        1.6411489441       -5.4033713319
 H         -3.0367964333        1.5922798396       -4.5915759029
 H         -3.0020530709        2.2157453885       -5.9801017320
 O          3.9642832525       -0.2971574039        5.6561673219
 H          3.9901338991       -0.4976354926        4.6889980786
 H          3.5740432410        0.5827554379        5.7400505111
 O         -6.5018336158       -0.6180940309       -1.1390176711
 H         -6.1653307103       -0.6367093615       -2.0673730738
 H         -7.0454647600        0.2071456984       -1.0690097389
 O          3.4421765228       -2.6624778071       -4.0060201494
 H          4.4123404772       -2.7219709416       -4.0940532601
 H          3.0684364929       -2.3624127435       -4.8582601296
 O         -1.5994044970        5.3117595777        2.9336780973
 H         -2.1025543395        5.0301219521        3.7020978479
 H         -1.2170459828        4.4828840643        2.5713766128
 O          1.3302959455        5.7863348725        0.2954949232
 H          0.5524290883        6.0463878458       -0.2339328397
 H          2.1056942997        6.2181842878       -0.0860483745
 O         -8.2439384152        0.4362095641        1.0321639745
 H         -8.4350570081       -0.0531183056        1.8370336764
 H         -8.9375258839        1.1232188916        0.9633273576
 O          6.1809576665        1.0281825572        4.7068752112
 H          5.5460968423        0.7030656113        5.3617613667
 H          5.6870466299        1.6160589967        4.1061370351
 O          2.0908836191       -1.7772040751       -6.1326961464
 H          1.8658962315       -0.8364656890       -6.1832710663
 H          1.2709435565       -2.2518524580       -5.9117264210
 O         -2.5801570543       -3.8284969139       -4.3236939456
 H         -1.9124329605       -3.5324542945       -4.9559532819
 H         -2.2441045942       -3.5342759137       -3.4510807913
 O          1.4159671996        0.9510515348       -5.8571253978
 H          2.2467309663        1.3385401597       -5.5230900380
 H          0.8069320978        1.7167901992       -5.8644814844
 O          0.1989279333       -5.1645743186       -3.4409690711
 H          1.0242771151       -4.8455807113       -3.0111246830
 H         -0.4835408747       -5.1311558530       -2.7495442300
 O          7.4594765490       -1.1724728535       -1.0541646966
 H          6.9863402279       -1.2072225661       -0.2014631412
 H          8.2963681829       -0.7369950650       -0.8740064272
 O         -0.1424414360        2.9385456595       -4.9815444115
 H          0.1972302685        2.7596252034       -4.0785175009
 H         -1.0192019136        2.5188637490       -5.0587838425
 O          5.6544452983       -4.7110403555       -0.6572483576
 H          5.2843512363       -5.4835383726       -1.0978179483
 H          6.3379660585       -4.3222897762       -1.2672720421
 O          7.0040723435        1.9989823356       -4.5477102421
 H          7.6418581694        2.0259036528       -5.2590921144
 H          6.4225024404        1.2137840207       -4.7360518272
 O          7.1625302956        1.1974923059        1.3468119503
 H          6.5865292332        0.4167329402        1.2646490868
 H          7.9735415663        0.9725389103        0.8393027825
 O         -0.2107330667       -1.3940018655        5.8082958780
 H         -1.0894235920       -1.0710876278        6.0555114798
 H          0.2884964553       -0.5627978975        5.6672542057
 O         -2.4073745812        0.2294699399        5.8276753863
 H         -2.5777128244        1.0713041538        6.2531120671
 H         -3.2768059640       -0.1865577290        5.6731092124
 O         -3.0163890349       -2.7725083000        3.5777997631
 H         -3.5230037966       -2.1433990579        4.1383001524
 H         -3.6670907016       -3.1944483189        2.9756798657
 O         -0.7949205065        2.9372174343        5.3253811620
 H         -0.0904174148        3.5713515900        5.0807964439
 H         -1.5459294668        3.0798447299        4.7266296964
 O         -2.3679803253        3.9879498098       -2.7580368181
 H         -2.4350777754        4.1683055859       -1.7963440275
 H         -1.6184081374        4.5051414820       -3.0916320328
 O          8.0302341601        1.5940054132       -2.1181153865
 H          7.6744150962        1.6404073360       -3.0292828655
 H          8.6905033112        0.8797500405       -2.1153056849
 O          9.5135682547        0.7188064203        0.2901409348
 H         10.1224219401        0.1744758498        0.8148523440
 H          9.8239905020        1.6322364943        0.3776087381
 O         -1.5311186733       -5.4271701215       -1.2603023941
 H         -1.4194103524       -6.1497542697       -0.6337298375
 H         -2.3933304100       -5.5413440520       -1.7072822925
 O          0.6277794202       -5.7997958248        0.5572556686
 H          1.5698770539       -5.6423590041        0.7568904067
 H          0.1429438577       -5.6579774582        1.3876941414
 O          1.4313523673        4.2569130232        4.5099663459
 H          1.6952380594        3.6742702710        3.7748372244
 H          1.3154002859        5.1311747951        4.0873119612
 O          4.0387399373        5.1604296943        2.0659205661
 H          4.8488805493        5.4513262335        2.5251040599
 H          3.2996870347        5.6151071891        2.4796692889
 O         -9.0812492476       -2.7289315933        0.6684153234
 H         -9.1106564915       -2.4446741927       -0.2712162395
 H         -9.7984605426       -2.2169201953        1.0885987458
 O          3.2038404278        2.3265293482        5.2957336847
 H          3.6898016706        2.4391817067        4.4451582942
 H          2.7565074025        3.1711309689        5.4394555142
 O         -8.7184828188       -1.9466790241       -1.8511882027
 H         -8.4474722989       -2.6151323605       -2.5022387878
 H         -7.8915742380       -1.4914427528       -1.5741358097
 O        -10.0066250112        0.1721928828        3.6293723474
 H         -9.1431514898       -0.2375557305        3.8124784530
 H         -9.8908070794        1.1260665871        3.7084687637
 O         -7.4964019813       -3.8368910957       -3.4365213687
 H         -7.3839110797       -4.3495481402       -2.6201077533
 H         -6.6453934306       -3.8772445279       -3.9074443064
 O          8.5173466118        1.5923889707        3.5502650263
 H          7.8931770691        1.5087693349        4.2838898253
 H          7.9700768520        1.3877649336        2.7476518206
 O         -7.1259338757       -4.3981596506       -0.7985279111
 H         -7.0134840169       -5.2098057022       -0.2345603298
 H         -7.8484951899       -3.9189598382       -0.3833407560
 O        -10.0223307052        0.3415441943       -2.4965266236
 H         -9.7096561809       -0.5611218264       -2.2959506586
 H         -9.6880795114        0.5121454479       -3.4189865334
 O          5.1833369040        3.9931354905       -3.7407590856
 H          4.9656955543        3.7515036936       -2.8057451885
 H          5.9214406033        3.4205454264       -4.0006165732
 O          8.3392519621       -2.1047181099        1.3460262453
 H          8.7243998952       -1.7507780130        2.1672385845
 H          7.9929177431       -2.9873156667        1.5360819091
 O         -0.0811974119        5.3740019259       -3.7633212091
 H          0.8514137169        5.4272970148       -3.5046622308
 H         -0.1089292506        4.6930148320       -4.4593079837
 O         -1.8187727980       -4.5131652647        5.1197073831
 H         -1.4219500112       -4.1026646660        5.8877563482
 H         -2.3003969169       -3.8004895400        4.6270672617
 O          7.4439001044       -3.5648790531       -2.1446509746
 H          7.5178892600       -2.6541349945       -1.7624849138
 H          7.0629490277       -3.4668006237       -3.0309880915
 O         -6.6423608010        2.0671773409       -3.6663608520
 H         -6.7359801840        3.0242063421       -3.8982968395
 H         -7.0452249190        1.9678610322       -2.7789450942
 O          9.9624475838       -0.4119515646       -2.3577834413
 H         10.5985331845        0.3061188951       -2.2269092482
 H         10.1841003564       -1.1065374220       -1.7074004310
 O          1.0073307199        6.3405617669        2.9098354011
 H          0.0449178543        6.3008100307        2.9965784308
 H          1.1688753814        6.1552240151        1.9632295721
 O         -4.7011512803        5.4478153155       -2.6338548716
 H         -3.8853775635        5.0371972497       -2.9638228789
 H         -5.0894073173        4.7975472821       -2.0173766602
 O         -6.8127574454        1.7234527478        3.9658025758
 H         -7.6709574257        2.1888321846        3.9242680784
 H         -6.4274386425        1.8555062408        3.0637334733
 O         -7.8053234126        3.5965824687        0.2154401822
 H         -6.8606051477        3.6520720695       -0.0540225645
 H         -7.8666467196        4.0979340417        1.0498178597
 O         -8.7544466787        0.7493344544       -4.7372034522
 H         -8.4435323339       -0.1375568994       -4.9746706622
 H         -7.9632551487        1.2493379370       -4.4472883298
 O          8.2885685933        4.0799886892       -1.2716019863
 H          9.0842852786        4.0986051559       -0.7277404032
 H          8.2211692440        3.1640205179       -1.6276398535
 O         10.2597563506        3.3792315286        0.6044296133
 H         11.1220406090        3.5878523021        0.9623718693
 H          9.6035778543        3.6804427599        1.3014324960
 O          6.0196382888       -3.3935875741       -4.4778166831
 H          5.6442871364       -4.2911366656       -4.4325399047
 H          5.8199325814       -3.0537000123       -5.3726959596
 O         -5.1222397390        4.2190759754        2.3753256998
 H         -5.3408060459        3.4248384292        1.8604065606
 H         -4.4264557747        3.9407020058        3.0008489627
 O         -6.3871240115       -3.0182420160        4.7474229880
 H         -6.2378427633       -3.5925256618        3.9869209826
 H         -7.0303341041       -2.3537801362        4.4487940132
 O         -0.8395289912        6.0775388986       -1.2116258775
 H         -0.5836365427        6.0880953952       -2.1439032784
 H         -1.6746286514        6.5959758481       -1.1495736979
 O          4.9504711368       -2.0882302437       -6.5680827405
 H          4.0034217151       -2.0987545628       -6.7429013314
 H          5.1313167814       -1.2095303100       -6.1818751630
 O         -7.6246842316        5.1491312043        2.4059987242
 H         -7.5011060602        5.8665611661        1.7721192027
 H         -6.7139194337        4.8501362584        2.5959914405
 O        -10.1807647981        2.2813621589        0.8869851389
 H        -10.9059882669        1.7173090921        0.5300059790
 H         -9.9890533394        2.9236226413        0.1910840286
 O         -4.3221962264       -5.7484457706        0.2210066562
 H         -3.4948375618       -6.1625920340        0.5229016830
 H         -4.3693891284       -5.8597352527       -0.7341309528
 O          9.4489542922       -0.9605533994        3.5283958619
 H         10.3253979443       -0.9920724174        3.1248877486
 H          9.2302110414       -0.0080412100        3.6010888257
 O          4.9647834460       -3.3524499705        4.8452342718
 H          5.5642989587       -2.6053751637        4.6531152717
 H          4.3085003826       -3.0533262328        5.4800149192
 O         10.3200296800       -2.2683421283       -0.3728729459
 H          9.5059134561       -2.1455487885        0.1798049291
 H         10.3021418436       -3.2263239234       -0.5496973909
 O          7.1088991638       -4.5528131084        1.5774104493
 H          6.6116787123       -4.7966594804        0.7721682732
 H          6.8118713804       -5.1414294233        2.2957166635
 O         -9.1178797055        2.9399893076        3.3133750592
 H         -8.7830970492        3.8427699122        3.2266417807
 H         -9.5415172453        2.7526482521        2.4557288452
 O        -11.0703101276       -1.2046763833        1.6595100549
 H        -10.7188615629       -0.6176812295        2.3752617535
 H        -11.8534581220       -1.6193907480        2.0196864594
 O          3.8788614461        6.0597991774       -0.5923452204
 H          4.0639601886        5.6692120618        0.2792427625
 H          4.7437066486        6.1586725269       -1.0324280400
 O          6.2239052672        5.9344559804       -1.9885424195
 H          5.9274998962        5.4874381146       -2.7947668642
 H          7.0197851886        5.4671506894       -1.7073333051
 O          8.4693186103        4.0512376304        2.3934775038
 H          8.5280816426        3.2407350882        2.9390928691
 H          7.6627039183        3.9561395227        1.8307918697
 O          7.6113291340       -0.8992766178       -3.8222820085
 H          8.4826972365       -0.8691789562       -3.4047122212
 H          7.5864707450       -1.6636985540       -4.3985111825
 O         -4.7134940816        1.9185622795        5.5987806260
 H         -4.9850442131        2.4437223222        6.3499118946
 H         -5.5193952372        1.7814177802        5.0565070165
 O         11.4384043761       -0.8277809513        1.5441569427
 H         12.3612300647       -0.6226790148        1.4018303537
 H         11.1898186745       -1.4943127062        0.8611046040
 O         11.0429655913        2.1436025061       -1.9745269679
 H         10.5776214593        2.6305383150       -2.6569741415
 H         10.8227446906        2.5677028036       -1.1375089925
 O         -5.7272123857        0.4889383346       -5.7667870818
 H         -5.2283600624       -0.2067360838       -6.2602587447
 H         -6.6220940815        0.4880882988       -6.1100508441
 O          2.9659036133       -6.1297643499        3.5052587325
 H          2.2141495529       -6.7041208201        3.6443523072
 H          3.0574413496       -6.0071958669        2.5329446402
 O         -2.0076728316       -6.7415919191        1.2124036949
 H         -1.7176822954       -7.6439000722        1.3272140835
 H         -2.3959521287       -6.4615119492        2.0761534526
 O         -6.8562237537       -6.2648220139        0.9868011867
 H         -5.8871056398       -6.2992642976        0.9425273981
 H         -7.0841824483       -5.6877735618        1.7340901546
 O         -3.3730697083       -6.0510882441        3.3773849951
 H         -4.0221939384       -5.3854507943        3.1202857009
 H         -2.9127841128       -5.7060170090        4.1518270192
 O         -4.4474705030       -1.5871174986       -6.7801719792
 H         -3.5078045581       -1.4494719234       -6.5942439121
 H         -4.7174123788       -2.3321056474       -6.2131123090
 O         -4.7505435535        3.1118182300       -5.7703133210
 H         -5.4319523518        3.7600517300       -5.5800023017
 H         -5.1908326324        2.2464605593       -5.7786540936
 O         -3.2229648545        7.2371122021       -1.1176767700
 H         -3.4734396080        7.1357022827       -0.1894683173
 H         -3.8197350684        6.6868574126       -1.6569817161
 O         -3.6629562800        6.3611901812        1.4930924922
 H         -2.8837213598        6.2033319533        2.0574820562
 H         -4.3689979813        5.7825960197        1.8323999490
 O         -7.6425623146       -1.6971336763       -5.2601900053
 H         -7.0339044851       -2.0347046198       -5.9195500883
 H         -7.8470321228       -2.4402949412       -4.6806409300
 O          9.3025439406       -4.7545630372       -0.4713277595
 H          8.7577560880       -4.8188778846        0.3214301407
 H          8.7041870091       -4.4925423833       -1.1876138060
 O         -6.8188662137        4.6339872427       -4.1133703421
 H         -6.0340136908        5.0953084134       -3.7668363074
 H         -7.5176520469        4.8197913678       -3.4542394650
 O         -7.8640237553       -4.2978056376        2.6418589581
 H         -8.4115669612       -4.4925559993        3.4014191609
 H         -8.4252235659       -3.8605494158        1.9859459155
 O          1.1622131012       -7.3219556755       -1.6970519138
 H          0.8488383691       -6.8694301656       -0.8988858082
 H          0.7720748585       -6.8514225881       -2.4442315265
 O          6.2237743911        5.2559651085        3.6637527294
 H          7.1049130000        5.1327278302        3.2831914230
 H          6.0382230830        4.4644482967        4.1749155244
 O         -8.5006237670        4.9242550061       -2.0134807364
 H         -8.2309712730        4.4669872489       -1.1890918751
 H         -9.3486491032        4.5213792401       -2.2279820388
 O          5.7796258196       -5.6990701845        3.6282079686
 H          4.8824726926       -6.0543408278        3.6117123306
 H          5.7513414482       -4.9945388357        4.2893962498
 O        -11.7861006537        0.5764762020       -0.3318352481
 H        -11.3126603063        0.3920422589       -1.1562180151
 H        -11.6068231274       -0.1690662701        0.2639699476
 O          4.5004544134       -5.6160095858       -4.0681860242
 H          3.6340964019       -5.3784826922       -4.4039859785
 H          4.3509825931       -6.0608760121       -3.2185940252
 O        -10.5816505269        3.0422027019       -1.7896454427
 H        -11.5142327822        3.0882946849       -1.5780533353
 H        -10.4589724745        2.2002632080       -2.2471583204
 O         -6.5477322542        6.1894427972        0.0073903849
 H         -5.7934851614        6.7393032535       -0.2075088232
 H         -7.0739110800        6.1017821744       -0.7934895063
