  222

 H         -0.5425054112       -1.1597996585        0.9180873603
 C         -0.6112510051       -0.5412956740        0.0100749182
 H         -0.5391308395       -1.1969144471       -0.8712436601
 C          0.5103658647        0.5037878336       -0.0094871839
 H          0.3911098457        1.1518924071        0.8600966290
 H          0.3944399221        1.1152669956       -0.9056411629
 O         -1.7891825170        0.2100258093       -0.0077307040
 H         -2.5646581753       -0.3620747641        0.0026734602
 N          1.8637421187       -0.1172780949        0.0059475209
 H          1.9871272141       -0.7237037740       -0.8163106223
 H          1.9839787968       -0.6890763206        0.8531041602
 H          2.5930828886        0.6072400317       -0.0077051379
 O          4.6867949921       -1.3539091335       -2.3668659324
 H          3.8226417108       -1.5184872335       -1.9527562267
 H          5.0361913580       -0.5597333605       -1.9112606555
 O          1.8891057592       -0.6684829274        2.5836053404
 H          1.0023600311       -0.4367431980        2.8929905155
 H          2.4639265376        0.0612263748        2.8493835829
 O         -0.6572901057       -0.0623223743        3.4770133094
 H         -0.8477613692        0.7318057703        4.0090155047
 H         -1.5085602490       -0.3026324598        3.0601333810
 O          2.0446558913       -2.0052627168       -1.9165774610
 H          2.1049097431       -2.9714409271       -1.7640947267
 H          2.1572276592       -1.8816221996       -2.8771568735
 O          0.0538657386       -0.4400792048       -3.5251531657
 H          0.0920274186       -1.2747733921       -3.0237692858
 H         -0.4169552887        0.2102688933       -2.9540380569
 O         -3.7659206159       -1.4440608086       -0.5047685939
 H         -3.4951006842       -2.1262649156        0.1386487872
 H         -4.7030085063       -1.2459025483       -0.3260117539
 O         -0.0583729527       -3.3786334086        1.6658100389
 H         -0.0666573568       -3.2807584797        2.6306956005
 H          0.8908212711       -3.2676994745        1.4343795268
 O          4.2552215433       -1.2972418393        0.5276784564
 H          4.9617798715       -1.9104938378        0.2804156962
 H          4.6568580818       -0.6364531802        1.1175580547
 O         -1.3516736128        1.4890809868       -2.3689878831
 H         -1.9898572866        1.2511394569       -1.6656615771
 H         -1.8895118360        1.6318262108       -3.1817335074
 O          3.5352706594        1.9020845629        0.1320326616
 H          4.3632917075        1.5289207041       -0.2320817118
 H          3.5795399507        1.8626362529        1.1101878013
 O         -1.6114191581        2.4179482208        1.4806099993
 H         -1.7674436167        1.6611074721        0.8824313396
 H         -1.5910409284        3.2419287078        0.9640857821
 O         -4.5449204283        0.9175662549        1.3409794230
 H         -4.3366590222        1.6905170152        1.9042447568
 H         -4.3380651974        1.1985884368        0.4226854337
 O         -0.4993816308        3.8986171921       -1.5959417833
 H          0.1082074325        3.8971153161       -0.8324217616
 H         -0.7807399911        2.9725260152       -1.7654332681
 O         -3.3868849983       -2.5702122694       -2.8676976502
 H         -3.0959509726       -2.0090604365       -3.6085282242
 H         -3.4798372095       -1.9909302858       -2.0773939586
 O          3.0170805935        1.8645803362        2.8056412818
 H          2.1397535209        2.2768861085        2.9195066121
 H          3.6515400772        2.5366980896        3.1215806533
 O         -3.7375797790        1.7435325514       -1.0613691897
 H         -4.3086207059        1.4631012848       -1.8024061840
 H         -3.6479581219        2.7057294245       -1.1485992849
 O          1.5279248968        3.7266141035        0.2355993228
 H          2.1809624458        4.4328340597        0.3899646632
 H          2.1006573436        2.9736080044        0.0046363336
 O         -3.0788574990       -0.8490415941        2.6306361658
 H         -3.5475897698       -0.8616602781        3.4912839504
 H         -3.5966983486       -0.2208760859        2.0745182505
 O         -0.6406401502       -2.8380369940       -2.4984886889
 H         -1.5844663867       -2.9342367195       -2.6968969890
 H         -0.4273079527       -3.5234517920       -1.8297954168
 O         -6.4004221319       -1.5209323048       -0.1423160540
 H         -7.2280766775       -1.0603779068        0.0775133754
 H         -6.2596885571       -2.2016344954        0.5434606925
 O          2.3229969379        0.9423948189       -2.5003291596
 H          2.0266078101        1.8394059388       -2.7422855366
 H          1.8080513059        0.3312631743       -3.0428143055
 O          5.7262595173        0.7024424710       -0.9386025520
 H          6.4328528099        1.1755650227       -1.4108630225
 H          6.1973428251        0.1829686891       -0.2554154445
 O         -6.0056470570       -1.4229043949       -2.8360630126
 H         -6.1941715483       -1.5282464023       -1.8838772445
 H         -5.2937373579       -2.0444854963       -3.0381118648
 O          4.7100820042        1.5039867050       -3.5478164949
 H          3.9465096869        1.1664603395       -3.0308516021
 H          5.0873725619        2.2202674094       -3.0051397457
 O          5.9510374418       -3.0941995495       -0.8141484559
 H          5.5245853888       -2.5564624615       -1.5228634992
 H          6.8699210983       -3.1709745773       -1.0792635743
 O          2.5563188436       -3.2320188909        1.2234896179
 H          3.0462504035       -3.9909847423        0.8310509137
 H          3.1078100650       -2.4486540734        1.0214944997
 O         -2.7444433461       -3.1048151295        1.3528193962
 H         -1.7910484243       -3.2959828999        1.4199828063
 H         -2.8604869407       -2.3159411006        1.9396502232
 O          0.6427510873        3.1763240086        2.7475413368
 H          0.9741359037        3.5518160980        1.9103333033
 H         -0.1732094463        2.7188519192        2.4822691849
 O          5.3945398122        0.7183013446        2.0246561133
 H          6.2961366574        0.6195967448        2.3983385054
 H          4.8077607010        0.5266071685        2.7683303141
 O         -7.0087802186        0.6959542794        2.3610158809
 H         -6.9815986755       -0.1714308859        2.8343308646
 H         -6.1550806343        0.7327558041        1.8740616779
 O         -5.1830245705        1.0968520855       -3.2349844014
 H         -5.4385658999        0.1477335642       -3.1612956973
 H         -6.0045856149        1.5837822038       -3.1239826306
 O         -0.3330271745       -4.7969320809       -0.6944860132
 H         -0.2081046354       -4.4550973547        0.2063280753
 H         -1.2302851570       -5.1565041041       -0.7472746198
 O          5.7336306685        3.4566400831       -1.9044108810
 H          5.8171325467        3.3143719997       -0.9427585046
 H          4.9580435867        4.0264747537       -2.0276753808
 O         -3.1452576218        4.3961348559       -1.5180527215
 H         -3.3615350024        4.9281750334       -2.2832081911
 H         -2.1669703042        4.4075543824       -1.4298475334
 O         -2.8020893917        1.5036077843       -4.5908753830
 H         -2.6809206127        0.5758775324       -4.8578822915
 H         -3.7117526083        1.5424709320       -4.2554019023
 O         -4.5948172880        4.5626623590        0.8264834501
 H         -5.3752368214        4.0327028650        0.5971324275
 H         -4.0834581287        4.5971402690        0.0016646491
 O          7.9169556808        1.8430876562       -2.2369411430
 H          7.4323582928        2.6582605089       -2.4195119898
 H          7.8113878680        1.2717977998       -3.0091961672
 O          6.0910734245        3.0788866817        0.8595486066
 H          5.7222870742        2.2470706028        1.2243818664
 H          7.0441314156        2.8752172566        0.7829148497
 O          6.8148816353       -0.0879600884       -3.8837584563
 H          6.6687975481       -0.6229586063       -4.6631176385
 H          5.9788977415        0.4246890850       -3.7484219220
 O         -5.5650767845       -3.3996893615        1.6327819930
 H         -4.6118145953       -3.4789679280        1.7650458908
 H         -5.8009104426       -4.1239176508        1.0217460519
 O         -6.4898819289        2.6903596162        0.0853696482
 H         -7.0388660904        2.4312646185        0.8291096488
 H         -6.8261725893        2.2036782350       -0.6800725387
 O          8.0498718764       -1.6635641406       -2.0038361158
 H          7.5093739734       -1.1292954828       -2.6210138456
 H          8.9625283359       -1.5104214289       -2.2482736845
 O          4.0862201991       -4.9691406394       -0.0510913798
 H          3.5350224607       -5.0812924292       -0.8386213498
 H          4.8346424880       -4.4140443008       -0.3271077015
 O         -3.1094522961       -4.6777752665       -0.9670177207
 H         -3.0288429715       -4.1550507198       -0.1546881642
 H         -3.2170748510       -4.0558815588       -1.7010495526
 O          7.4653640204       -0.7275166139        0.4878518864
 H          7.7222507018       -1.2122636063       -0.3166052785
 H          7.1122496001       -1.3700752837        1.1354728549
 O          4.5134707232       -1.0497496797        3.9372766382
 H          4.8042936029       -0.9845202666        4.8462543404
 H          3.7997362416       -1.7450853650        3.9216211594
 O         -3.7465044246        3.0267546983        2.8579615310
 H         -2.8779444420        2.7969473384        2.4509760957
 H         -4.1168910284        3.7190246709        2.2729231905
 O         -1.4162008267        2.2426407442        4.7011170789
 H         -0.7144940979        2.8685653176        4.4965323693
 H         -2.2468736733        2.6337015840        4.4113842328
 O         -7.6815757665        0.9806717254       -1.8437442757
 H         -8.2201987699        0.6931309629       -1.0900379856
 H         -7.5664475165        0.1922878802       -2.3819572887
 O          8.4647679938        1.8222251616        0.5155601123
 H          8.6444524430        1.9961301531       -0.4161088427
 H          8.1615663123        0.8957597992        0.5350253017
 O         -2.1355809788       -1.1508698121       -4.8615353159
 H         -1.2581466166       -0.9633328919       -4.4443884778
 H         -1.9648713380       -1.6778018125       -5.6423067056
 O          2.1334710474       -4.6815991393       -1.9908548504
 H          1.3465327179       -4.9908790489       -1.5222391608
 H          1.8908425077       -4.6446716152       -2.9392604991
 O          2.8306311796       -1.6045689308       -4.4657501479
 H          3.7143524093       -1.6148660587       -4.0708791928
 H          2.7872439470       -0.7761643030       -4.9831046327
 O          1.4225145754        3.3437848658       -3.3594737396
 H          0.9865608922        2.9610457775       -4.1436094377
 H          0.6999076734        3.6947853572       -2.7964460395
 O          3.8933036519        5.0158623840        0.5148281666
 H          4.5946732689        4.3582515527        0.6280525957
 H          3.8303496331        5.1618443889       -0.4381853671
 O         -6.6663542760       -1.6611261513        3.5035986321
 H         -5.9544057966       -1.4952613488        4.1380814252
 H         -6.3588638983       -2.3742454762        2.9248782006
 O          6.3687393889       -2.2826945422        2.3846159191
 H          6.0120757392       -3.1574461732        2.2223649269
 H          5.7160796233       -1.8153213929        2.9517313685
 O         -0.0217548383       -2.5479845953        4.3212206010
 H         -0.3713244199       -2.7347035320        5.1914972891
 H         -0.2285110040       -1.6115326127        4.1132695840
 O         -4.4570917672       -0.6333712221        4.8826266296
 H         -4.0316822756       -0.6468200842        5.7388051995
 H         -4.8672179150        0.2725928848        4.7928773336
 O         -5.5378816520        1.7137285282        4.4932000455
 H         -6.2598120296        1.5374300704        3.8670807843
 H         -4.9149613902        2.2976486364        4.0337452776
 O          3.3919850052        4.8065016384       -2.2343362426
 H          3.3523568188        5.5857236928       -2.7853977450
 H          2.7392521208        4.1861616010       -2.6100812156
 O         -5.7748326322       -5.0130740929       -0.4830405497
 H         -6.2581028631       -4.8594286630       -1.2947699451
 H         -4.8365943519       -5.1316840068       -0.7220548101
 O          4.7088657146        3.9368213650        3.1774586681
 H          5.4617901397        3.7615533935        2.5950607377
 H          4.2562820376        4.6960693393        2.8011324702
 O          0.1382732285        1.8241967053       -5.1968308299
 H         -0.7999108465        2.0082454706       -5.3072239008
 H          0.1940547866        0.9431077642       -4.7993632262
 O         -8.6595516145       -0.0982544212        0.4967997813
 H         -9.4774501677       -0.4369380796        0.8603702223
 H         -8.1466550686        0.2910896227        1.2539366166
 O          2.9128373706        0.8395694871       -5.5820055918
 H          3.5828893658        1.2775585615       -5.0341604678
 H          2.1604211248        1.4318185505       -5.6607551689
 O          2.7795250608       -3.0243969160        3.9124012341
 H          1.8761550734       -2.7892332929        4.1634834348
 H          2.7258997053       -3.1893447502        2.9483174857
 O          7.8435649778        0.5788453053        3.1019852010
 H          8.4079564480        1.1375510807        2.5572949291
 H          8.1440640791       -0.3272278800        2.9973858466
 O          1.1529003129       -3.8732081290       -4.3696937066
 H          1.7512446288       -3.1623384815       -4.6383174263
 H          0.4451501435       -3.4591665990       -3.8488400085
 O         -1.6253051419        5.0464313525        0.8676956886
 H         -1.0021325905        5.5382667682        1.4034430020
 H         -2.5114964644        5.3355214314        1.1048717062
