  91

 C          0.4290115124       -1.2408018267       -0.2559771928
 C         -1.5264665481        0.1243553066       -0.2663054660
 C         -1.0132235984        1.4006858437        0.2680549471
 C          1.4892671744       -0.2940641271        0.3237057557
 H          0.4414940416       -1.1621668937       -1.3558460593
 H         -1.4861714549        0.1253177736       -1.3671423845
 H         -0.8558083841        1.4954254435        1.3240433148
 H          1.3374380714       -0.2212660539        1.4020633219
 H          0.6801805769       -2.2674137686        0.0261112895
 H         -2.5767748754       -0.0469600806        0.0310235573
 H         -1.0831570939        2.2893105627       -0.3251613442
 H          2.4827592743       -0.7377045063        0.1402934047
 O         -0.8677417364       -1.0374525810        0.2306818141
 N          1.3498896195        1.0341120772       -0.2400540505
 H          1.5203615874        1.0356199109       -1.2392088522
 H          1.9601775597        1.7044689298        0.2100323679
 O         -2.6265592133       -2.1397106938        2.1258696157
 H         -1.9492265137       -1.6956053804        1.5891480527
 H         -3.4433886783       -1.6492157451        1.9458839950
 O         -1.4286587737       -1.9695995762       -3.7470457285
 H         -1.8632474811       -1.1040068698       -3.6649704421
 H         -1.8057870077       -2.5154383691       -3.0443004197
 O          0.2936695090       -4.3573530139       -1.5654107692
 H          0.4576361771       -4.3859360352       -0.6139996321
 H         -0.6391087335       -4.1113994795       -1.6573734714
 O         -2.2200161857       -3.0238282562       -1.2480245877
 H         -2.4134534066       -3.7060252253       -0.5577727656
 H         -1.7276490861       -2.3367245246       -0.7650793265
 O         -2.3141579785       -4.5358614111        0.8952199280
 H         -2.5838554737       -3.7947365385        1.4708457338
 H         -1.3583484577       -4.6260680554        1.0356598533
 O          1.1866673591       -2.3935864331       -3.2344884639
 H          1.0280750755       -3.1893196045       -2.6897033358
 H          0.2976243714       -2.2115178219       -3.6049260397
 O          0.4462754153       -4.1914191797        1.2994120616
 H          0.2676340399       -3.5374405777        2.0214596701
 H          1.0541345357       -4.8280669041        1.6743537568
 O         -0.4879539262        1.9049968779       -3.2686561688
 H          0.3001067239        1.3530188117       -3.3646609831
 H         -0.2589403315        2.5734242937       -2.5975115600
 O         -2.6924891479        0.4517011529       -3.2475658261
 H         -3.2500061705        0.8013953917       -3.9410233348
 H         -1.8899897725        1.0323908687       -3.2312177978
 O         -4.5505241266       -0.4604285467        1.0627902139
 H         -5.4751314328       -0.3773637740        1.2929781346
 H         -4.5267183725       -0.7361863067        0.1123105843
 O         -0.1821199169       -2.5677883692        3.3076353135
 H         -1.1453192728       -2.6437055132        3.2582281163
 H         -0.0196494008       -1.6090749934        3.2662118585
 O         -0.3029129125        0.1882026267        3.5202141534
 H         -0.3016007375        0.2380455895        4.4777741801
 H         -1.2385270322        0.3885519595        3.2541840869
 O         -4.2808972918       -1.2063170438       -1.4893009610
 H         -3.6907744069       -1.9836410022       -1.4714506229
 H         -3.8351211154       -0.5628346528       -2.0583045346
 O          0.5018348852        3.8035744149       -1.5408226938
 H          1.3796274795        3.6731269526       -1.9321770536
 H          0.6544516546        3.7162796633       -0.5820144659
 O          1.8863616088        0.3492519336       -3.3108875333
 H          1.5611061172       -0.5535105039       -3.4446024289
 H          2.8124947314        0.2461755618       -3.0710607259
 O         -2.7912101057        0.9399079753        2.9948235815
 H         -3.3505339226        0.5752463823        2.2984558636
 H         -2.6824056210        1.8894679518        2.8031318390
 O          1.4027365163        2.2621731657        2.8828832118
 H          2.2292735212        1.9223882810        2.5059607330
 H          0.8175643261        1.4917652476        3.0101588050
 O         -1.9825374321        3.5271023682        2.4746954428
 H         -1.0738084479        3.4443473069        2.7745324851
 H         -1.9535743714        3.9087442374        1.5809971917
 O          0.9640935813        4.1731565257        1.1117192324
 H          1.0546828024        3.4616940638        1.7902266362
 H          0.2864822045        4.7848588057        1.4033176300
 O          3.5366049026        4.0529128065        0.2219482875
 H          3.4655584109        3.8845883472       -0.7261344530
 H          2.6482343143        4.3100288444        0.5227185011
 O          3.0141510177        2.9344116940       -2.3582288644
 H          3.5293499164        2.1963298377       -1.9647517496
 H          2.7578475173        2.6264981842       -3.2302875721
 O         -1.8155205219        4.6879235555       -0.0892848722
 H         -2.6077548145        4.4595840797       -0.5776856291
 H         -1.0767875334        4.5897994783       -0.7072657192
 O          3.8331784671        1.7496604492        1.4447084192
 H          3.8037031832        2.6542712936        1.0289340905
 H          4.6099959638        1.7413182234        2.0039042190
 O          4.3159401596        0.8538425205       -1.2224353144
 H          4.1988937366        0.9997952206       -0.2700153830
 H          4.1169177616       -0.0805814742       -1.3868994637
 O          3.5324215780       -1.7443130481       -1.9040345657
 H          4.0897148711       -2.5201143174       -1.9582763455
 H          2.7032020519       -1.9767335458       -2.3591567332
