  191

 H          0.4630927090        1.1941025318        0.8323452924
 C          0.5529035751        0.5095402412       -0.0251092094
 H          0.4633421191        1.0989800578       -0.9466436123
 C         -0.5779259316       -0.5149488593        0.0205351816
 H         -0.4518492571       -1.1270258207        0.9278134501
 H         -0.4840892683       -1.1748678685       -0.8448928523
 N         -1.8603253906        0.1647702490       -0.0623309299
 H         -2.6131021648       -0.5138473299       -0.0751527694
 H         -1.9956541790        0.7570092201        0.7508171695
 O          1.7808081034       -0.1833448060        0.0209869081
 H          2.5006908397        0.4507195083       -0.0567171313
 O          4.4099008269       -0.5488838550       -1.6300292928
 H          4.3528041975       -1.4637713863       -2.0002113910
 H          3.6553461538       -0.0609176132       -2.0169050549
 O          4.1384753853       -3.1097313580       -2.2301815777
 H          3.3244006419       -3.1097422791       -1.6841811331
 H          3.7983859277       -3.2195277327       -3.1499385556
 O          0.2167978446       -0.2172849687       -3.5416766779
 H         -0.3969656299        0.3667471694       -3.0489945943
 H          1.1188724887        0.1328598450       -3.3887276331
 O          3.2441038663        2.1543020345       -0.1455272591
 H          3.2900998745        2.6732270427       -0.9769829088
 H          2.7535620522        2.7245142105        0.4786400934
 O         -1.5880528041        1.4385427381       -2.3404548880
 H         -1.7846099254        0.9365386655       -1.4824320458
 H         -2.2752318656        1.1946336447       -3.0038377204
 O          0.3510845555       -2.8264139074       -3.1028753556
 H          0.2844858170       -1.8637288970       -3.2958504803
 H          0.9031623841       -2.8851860383       -2.2952799477
 O          0.6702826808        3.0345625529       -2.2142927446
 H          0.3479463740        3.4396669035       -1.3811301462
 H         -0.1157026214        2.6185751539       -2.5951090727
 O          1.8556902919       -2.7582057599       -0.8965928819
 H          1.8164678268       -3.3207465051       -0.0887422193
 H          1.8314184708       -1.8312308792       -0.5953560637
 O         -2.0297009612       -3.3543030062       -2.1503323760
 H         -1.1301875646       -3.1886800351       -2.5436594786
 H         -2.4072899213       -4.0976257432       -2.6219720314
 O          1.9254205199       -4.1396822533        1.3622610390
 H          2.8978009660       -4.1085546902        1.4761174501
 H          1.6108661408       -3.3707719402        1.8821060526
 O          4.4280260338       -3.3250444426        1.5866283894
 H          4.3047688338       -2.4029969507        1.2716756856
 H          5.0313191494       -3.7536973426        0.9307052443
 O          1.2928989806       -1.7894743642        2.4009083551
 H          1.6719023636       -1.4577663136        3.2448968143
 H          1.5640165945       -1.1677357817        1.7090616674
 O          1.0603797145        2.2100967728        3.3160986911
 H          0.6625251181        1.7865743647        4.1135668497
 H          1.8637109836        1.6906738624        3.1344637409
 O          1.8739110781        3.9235208293        1.4176005258
 H          1.6148178675        3.4887592940        2.2508689574
 H          1.0372267713        4.0456322574        0.9409103101
 O         -1.6727871718       -0.2386319407        3.1847491393
 H         -2.6221371400       -0.1729171237        3.0179684841
 H         -1.4776186885       -1.1917420617        3.1279216540
 O         -2.0375964932       -3.9745007212        0.4968893664
 H         -2.0596777233       -3.6763819514       -0.4328418542
 H         -1.3849827303       -4.7039009436        0.4939985302
 O         -0.4945545112        4.1053755105       -0.0249582358
 H         -1.2938010635        4.3058883221       -0.5470627849
 H         -0.8282829388        3.4805153355        0.6598709299
 O         -3.9191262816       -1.7892301290        0.3638577114
 H         -3.3175975712       -2.4841597534        0.6535692212
 H         -4.7680791717       -2.2631876655        0.1525959216
 O         -3.8407040572       -1.3752779283       -2.6504941874
 H         -3.1634379368       -2.0173115088       -2.3762404670
 H         -4.0614736929       -0.8395674693       -1.8668854641
 O          4.3615052196       -0.7187575177        0.9894680956
 H          5.2930827063       -0.5144211681        1.2030229188
 H          4.2926562137       -0.6267529387        0.0109939076
 O         -4.6793287604        0.6859619097       -1.0942745826
 H         -4.7395390171        1.3368738822       -1.8179236975
 H         -4.4428346804        1.2144096936       -0.3122756770
 O          0.0125987569       -5.6772113768        0.2026889484
 H          0.3762845684       -5.7798295969       -0.6779547614
 H          0.7153864947       -5.2730762020        0.7410989876
 O         -2.7787376701        3.6988624558       -1.4453695202
 H         -3.2752896033        3.4177661499       -0.6500731827
 H         -2.2935480983        2.9008219409       -1.7467112216
 O         -6.0521925386       -3.2141308869       -0.0930473872
 H         -6.8343509268       -2.7192083788        0.2426943919
 H         -6.1585689926       -3.2182518516       -1.0707846668
 O          3.4766411858        1.0399250406        2.8566549192
 H          3.6910601700        0.4479397158        2.1077316338
 H          3.9253355073        1.8981765275        2.6936424893
 O          5.8883486144        2.2589071145        0.1632701642
 H          6.2079307521        2.0876912801       -0.7476475207
 H          4.9161518757        2.1289199009        0.0866970293
 O          6.3330022434        1.2848220586       -2.2884257700
 H          7.2040547227        0.8511362521       -2.4010569644
 H          5.6961838837        0.5588731316       -2.1350840920
 O          7.0046898120       -1.6769865492       -0.6248951484
 H          7.0740241175       -1.1247275776        0.1714238548
 H          6.2310515414       -1.3643379306       -1.1138766139
 O          2.4760901426        0.9622199231       -2.7713460154
 H          3.1444490627        1.3422998677       -3.3823971148
 H          1.9546352654        1.7119851599       -2.4437401237
 O          5.9020184971       -4.1773212627       -0.4212398427
 H          6.5465840076       -3.4524156035       -0.4595995159
 H          5.2861959743       -4.0031591290       -1.1547162760
 O         -6.2457917103       -2.6876101931       -2.7089902295
 H         -5.3662064124       -2.2931572905       -2.8489724050
 H         -6.8284634487       -1.9286765725       -2.5609553249
 O         -1.2294684744       -2.8823772013        2.8910317226
 H         -0.2803520178       -2.7139834498        2.8075379371
 H         -1.5101868171       -3.2946007815        2.0552637394
 O         -7.1621265940       -0.2485684936       -1.7062654226
 H         -7.5351884135        0.6034812377       -1.9604557624
 H         -6.2625442297       -0.0347183719       -1.3867966119
 O         -4.4203913986       -0.4007876630        2.5477281234
 H         -4.2588265986       -0.7741327854        1.6444251831
 H         -4.3816614128       -1.2150110705        3.1208169508
 O          4.6604083837        3.3905401422        2.3955935281
 H          5.2896820179        3.2897550570        1.6682282069
 H          3.9699988338        3.9909294198        2.1012863478
 O          6.8886906733        0.1676146185        1.3993119683
 H          6.7488418364        0.2025969429        2.3742388227
 H          6.5481253826        1.0209395160        1.0246385963
 O         -8.0087996160       -1.5243525118        0.5442046207
 H         -7.7064707938       -0.8664602558        1.1889230890
 H         -7.9095003534       -1.0879893838       -0.3216339093
 O         -6.9311047672        0.4440966743        2.1974831479
 H         -6.0051827730        0.1316035869        2.3304047336
 H         -7.3307675650        0.5071496211        3.0648640435
 O         -3.9922178574       -2.6775236532        3.7411138287
 H         -3.0380737933       -2.8132922177        3.7865463760
 H         -4.3137818899       -3.3834846978        3.1378733225
 O         -4.5120006732       -4.4904587474        1.8205212810
 H         -3.6755611302       -4.5525198458        1.3384548808
 H         -5.1819645001       -4.2128924178        1.1752627398
 O         -4.1968491947        2.7060514713        0.6318646949
 H         -3.9145642257        2.7410913621        1.5506013526
 H         -5.1726862267        2.8748147121        0.6498954682
 O          4.4773778062        2.1935542835       -4.0765269824
 H          5.2702443780        1.9241399562       -3.5753921671
 H          4.2154212095        3.0363860382       -3.6826397773
 O         -6.8174554612        2.7692188037        0.6720635954
 H         -6.9787204122        1.9464993624        1.1635841113
 H         -7.0895284720        2.6040568938       -0.2466938824
 O         -4.7852801041        2.6901051537       -2.9917429982
 H         -4.1103559360        3.2601900080       -2.5709624576
 H         -4.3336814273        2.1590218697       -3.6672940799
 O          3.2466571593        3.8852576303       -2.2408563863
 H          2.3266758619        3.7457675099       -2.5142940241
 H          3.2204226587        4.7032993657       -1.7110909987
 O         -3.3277292594        0.7360175447       -4.2117225997
 H         -2.7292706936        0.4248792046       -4.9194061356
 H         -3.6417247446       -0.0783550155       -3.7660622642
 O          2.8215155904       -3.0901310678       -4.5163497242
 H          3.0750895877       -2.1905216250       -4.7783673987
 H          1.8999859327       -3.0500675355       -4.2199625903
 O         -1.2516211785        2.4320596837        1.8900649819
 H         -0.4786440451        2.2907427378        2.4657360602
 H         -2.0291370086        2.3854041584        2.4657934780
 O         -7.3134374196        2.4920277789       -2.0396092970
 H         -7.8326777490        3.2410262633       -2.3273895593
 H         -6.4259229817        2.6007030226       -2.4347024137
 O          5.9857734054        0.1096178027        3.8764549851
 H          5.2182750558        0.6955883361        3.8541068892
 H          5.6199565431       -0.7870667525        3.9833188387
 O          2.4721915192       -0.8309953057        4.5784665901
 H          2.8378156079       -0.0370717533        4.1543188405
 H          3.2154499384       -1.4533064445        4.6164916183
 O         -0.0353401558        0.6524053185        5.1366950383
 H         -0.6838143163        0.2986244698        4.4934659500
 H          0.6538444779       -0.0156841953        5.2214154840
 O         -1.4192793981       -0.4761994349       -5.6701694533
 H         -0.6932880925       -0.3373360414       -5.0323053910
 H         -1.5584492560       -1.4232453377       -5.7069636528
 O         -3.6184934929        2.1212409212        3.3345784958
 H         -3.4012507236        2.0829639704        4.2671614912
 H         -3.9949629322        1.2539241690        3.0959564640
 O          8.6026590398       -0.1824662489       -2.2309630366
 H          8.2318827014       -0.8940552596       -1.6747443094
 H          9.1024904135        0.3583883293       -1.5987936858
 O          3.9822553096       -0.6064272100       -4.7212582942
 H          4.8330498013       -0.8902721166       -4.3534301105
 H          4.1002557978        0.3115069383       -4.9794005463
 O          9.1963396924        1.1106590595        0.1196932822
 H          8.5384000644        0.6765545999        0.6875414169
 H          9.0873066896        2.0529309569        0.2527484419
 O          2.4636475292        5.7973427629       -0.5146516684
 H          2.4500136225        5.3271470832        0.3300894140
 H          1.5424944279        5.9352055356       -0.7475496434
 O          4.7278394265       -2.3309244606        4.0253765188
 H          4.6104368310       -2.7363803395        3.1340784099
 H          5.1972019062       -2.9816106245        4.5420747723
 O          6.3538085776       -1.4635697869       -3.5224884699
 H          7.2570263671       -1.1302094012       -3.5160824004
 H          6.3883378422       -2.4182235170       -3.4430167097
