  116

 H          0.4630927076        1.1941025328        0.8323452961
 C          0.5529035761        0.5095402429       -0.0251092074
 H          0.4633421183        1.0989800595       -0.9466436097
 C         -0.5779259333       -0.5149488604        0.0205351876
 H         -0.4518492549       -1.1270258238        0.9278134322
 H         -0.4840892691       -1.1748678657       -0.8448928485
 N         -1.8603253886        0.1647702476       -0.0623309414
 H         -2.6131021662       -0.5138473281       -0.0751527665
 H         -1.9956541839        0.7570092262        0.7508171935
 O          1.7808081027       -0.1833448059        0.0209869108
 H          2.5006908393        0.4507195083       -0.0567171280
 O         -3.7635947050        2.7916045046       -1.7658742297
 H         -3.3979985353        2.1062510088       -2.3500341417
 H         -2.9914134679        3.3040483713       -1.4833465634
 O          4.4474965728       -1.9152185476        1.2815142638
 H          3.8201346412       -1.8666808663        2.0234072712
 H          3.9405980087       -2.3187937978        0.5535521905
 O          4.1042330653        0.8079451849        1.0879403159
 H          4.3253860681       -0.1408434126        1.1616522405
 H          3.8951919761        1.1007874519        1.9822108807
 O         -4.7872836379        1.2000237415        0.0613809809
 H         -4.4769959260        1.8969778079       -0.5723401288
 H         -5.7618277719        1.2770193288        0.1261033287
 O         -4.6675802366       -1.0496503768        1.7970542263
 H         -4.1053218433       -1.6130443976        1.2496165144
 H         -4.8031206733       -0.2376240514        1.2904657607
 O          2.1836920633       -1.0701684364        2.6175560311
 H          1.9601672618       -0.8519774683        1.6929363758
 H          2.3882885736       -0.2078358856        3.0161396734
 O         -3.1267314043        0.0282728278        3.7781233122
 H         -2.3314008358       -0.5130915496        3.8349125226
 H         -3.7640367940       -0.4818412908        3.2471301236
 O         -0.4638451894       -1.0616823199        3.2789381719
 H         -0.4554346311       -0.0877285550        3.3432364182
 H          0.4812368147       -1.2973582569        3.2317811894
 O          2.6008218523       -2.6451211117       -0.6286210889
 H          1.8855972098       -3.2394361863       -0.3396198471
 H          2.2351217478       -1.7470155741       -0.5125245274
 O          2.2663580426        1.6799687644        3.0274216460
 H          2.1664638827        2.3194333789        2.3037646892
 H          1.4376205211        1.7273774792        3.5204330958
 O         -0.4753255800        1.6655537405        3.5420484709
 H         -0.6321718078        2.2124473914        2.7493890181
 H         -1.2274869852        1.8130922355        4.1195646118
 O         -1.4138348117       -3.2704953144        1.9287438243
 H         -2.1143153275       -2.9720706643        1.3270732820
 H         -1.1649980745       -2.5175543404        2.4911732819
 O         -3.2509438478       -2.5891139888       -0.1167511707
 H         -2.6040889950       -3.0321955111       -0.7393986819
 H         -3.9965998515       -3.2129182596        0.0079028892
 O         -2.4197351099        0.5412001118       -2.6809675560
 H         -3.2246733849       -0.0027976609       -2.6750716154
 H         -2.1117130853        0.5368579332       -1.7353504464
 O         -0.5612136652       -1.5029224974       -3.1375658639
 H          0.2807309428       -1.0206999506       -3.1054921424
 H         -1.2521681210       -0.8234103545       -3.1726469242
 O         -1.4693869593       -3.6296971851       -1.6930957077
 H         -0.7217855996       -3.8650734180       -1.1176251691
 H         -1.1365263519       -2.9499166306       -2.3084648439
 O         -4.5763638208       -0.8349270290       -1.6878778466
 H         -4.0634829212       -1.5286668997       -1.2186639105
 H         -4.6304531115       -0.0698411721       -1.0689383825
 O          0.4512418736       -4.0783842120        0.2539440408
 H          0.6635319534       -4.9752561992        0.5108606792
 H         -0.1878925056       -3.7495296767        0.9408575615
 O          1.7358406490        0.0506132925       -3.0761038799
 H          2.3191849047       -0.6807774391       -3.3467157956
 H          2.2734572574        0.5473912862       -2.4387342559
 O         -0.1626921718        2.0252410614       -3.3131348728
 H          0.5290378497        1.3429923392       -3.3737577207
 H         -0.9971374999        1.5548771138       -3.4396246089
 O         -1.1560759976        3.6261190125       -1.3407781968
 H         -0.7813967000        3.0072986753       -2.0001754959
 H         -0.6753322983        4.4484875698       -1.4503659065
 O          1.8386248733        3.5475037152       -1.8431130768
 H          2.5216132013        2.8480664937       -1.8423524670
 H          1.2360338099        3.2981931669       -2.5508182813
 O          3.5056235144        1.4612708485       -1.4997345029
 H          4.2038147785        0.9258624759       -1.9585406979
 H          3.9703027104        1.9197532277       -0.7774772562
 O          1.7007498383        3.4873061880        0.9371582319
 H          0.7880052472        3.6199638592        1.2225721890
 H          1.6788108034        3.5309962866       -0.0365378516
 O         -1.0779877762        3.1783644708        1.3580725690
 H         -1.9989866132        3.0450488590        1.6651840330
 H         -1.1412853104        3.2603267441        0.3907500336
 O          5.2271542295       -0.1635210162       -2.6208623379
 H          5.8023436404       -0.4870875344       -1.8933493576
 H          4.7352051852       -0.9310008924       -2.9364098563
 O         -3.4165625346        2.2726210509        2.2482697850
 H         -3.9845767457        1.9528298662        1.5305804186
 H         -3.3379600181        1.5384164855        2.8868820967
 O          6.5849212571       -0.9502187706       -0.4324901861
 H          5.9804295996       -1.3951713742        0.1734468115
 H          6.8001925956       -0.0933280819       -0.0235684972
 O         -7.3785841052        0.6899005380        0.4197882910
 H         -7.5922444382        0.5162655635        1.3376872409
 H         -7.3555422826       -0.1766080372       -0.0308838330
 O          6.6664017115        1.5142106865        0.8041979259
 H          5.6863328929        1.4467704281        0.8532838342
 H          6.8398366356        2.3869940307        0.4514483517
 O          4.4507978365        3.4876924069        0.1390005133
 H          4.2799423155        4.1523021603       -0.5311026748
 H          3.6862266729        3.5058566262        0.7285037636
 O          5.9457658397       -0.0567807776        3.1218416674
 H          5.9784241493       -0.9359615474        2.7378289741
 H          6.4659708295        0.5139786679        2.5432379559
 O          3.2837673227       -2.1862833365       -3.1751381498
 H          3.1040701759       -2.4330358550       -2.2403253581
 H          2.9800736527       -2.9187675666       -3.7096591795
 O         -6.9719576184       -1.6412797644       -0.9588760514
 H         -6.1047421699       -1.3601234359       -1.3520058379
 H         -7.5657201635       -1.7747343666       -1.6959127167
 O         -5.6443028361       -3.5620135961        0.5429506863
 H         -5.6889909884       -3.2184592871        1.4395498380
 H         -6.2401955901       -3.0003064032        0.0192563128
