  147

 H         -0.5425054112       -1.1597996585        0.9180873603
 C         -0.6112510051       -0.5412956740        0.0100749182
 H         -0.5391308395       -1.1969144470       -0.8712436600
 C          0.5103658647        0.5037878336       -0.0094871840
 H          0.3911098457        1.1518924073        0.8600966290
 H          0.3944399221        1.1152669956       -0.9056411629
 O         -1.7891825170        0.2100258093       -0.0077307040
 H         -2.5646581753       -0.3620747641        0.0026734602
 N          1.8637421187       -0.1172780949        0.0059475210
 H          1.9871272141       -0.7237037740       -0.8163106223
 H          1.9839787968       -0.6890763206        0.8531041601
 H          2.5930828886        0.6072400317       -0.0077051379
 O          3.8957835994        1.6157048883        0.1581448976
 H          4.4068795226        0.7857045140        0.2641907808
 H          4.0066037635        2.1414799486        0.9751899902
 O         -0.6152718627       -1.3920119717       -3.2679201197
 H         -1.4611852446       -0.9479216493       -3.4689736103
 H         -0.8566937475       -2.3039765158       -3.0534770225
 O         -2.9928221574       -0.1761926064       -3.8079160914
 H         -3.4706177197        0.0012142657       -2.9662795921
 H         -3.0337387143        0.6332465079       -4.3189030335
 O         -4.3166195196       -0.0414746224       -1.5090380044
 H         -5.2813649452       -0.2401402526       -1.4978348734
 H         -4.2283623461        0.7327327625       -0.9112770600
 O          2.0832564846        0.2932856737        2.7092522424
 H          1.4103898327       -0.0688686377        3.3044853809
 H          1.8579287721        1.2402167134        2.5973668373
 O          1.4285403037        2.8565437770        2.2719654016
 H          0.4710149918        2.8367606749        2.4440431689
 H          1.5263108238        3.1351580272        1.3351266528
 O         -2.0968988035        2.0899225251       -1.9812311659
 H         -1.7054587365        2.8129086841       -1.4439790998
 H         -2.0805983001        1.3320656479       -1.3680033384
 O          1.9062548849        1.7808693532       -2.4915786173
 H          2.6838742999        2.1542047125       -2.9213054545
 H          1.1288552096        1.8885579260       -3.0985995359
 O          1.7380410615        3.5453135009       -0.3184965741
 H          2.5852189940        4.0314558058       -0.2522076173
 H          1.8480102668        2.9195315500       -1.0536916948
 O         -0.2830749939        1.6279246599       -3.8923119312
 H         -1.0045316712        1.8501717405       -3.2595258841
 H         -0.3774481940        0.6930108014       -4.0925337217
 O         -4.5490079675        1.9578569813        0.2087753338
 H         -5.4180276673        2.1461319589       -0.1853470293
 H         -4.0947468025        2.8347689111        0.2555559757
 O         -1.0020413035        3.6917193562       -0.1605618521
 H         -1.0785767796        3.1397255899        0.6482904777
 H         -0.0590984158        3.8848933887       -0.2708653200
 O         -1.2271848235        2.2935455085        2.1385991360
 H         -1.5472032569        1.3768228357        2.1288125286
 H         -1.9661226139        2.8047567945        2.5399233298
 O          2.0050568616       -0.8889975491       -2.6518597954
 H          1.1200638439       -1.1413729963       -2.9688666991
 H          1.9969929875        0.0971720643       -2.6506046427
 O          0.2422783222       -2.8184991663        2.4800906190
 H          0.1039584921       -2.1392100930        3.1613798955
 H          1.1875755077       -2.7422618712        2.2584893033
 O         -3.2031205870       -2.2502249201       -0.5724678799
 H         -3.6745787086       -1.5303282922       -1.0523385477
 H         -2.8213911839       -2.8246306465       -1.2515571399
 O          0.0834888688       -3.7426198678       -0.2142947627
 H          0.0817878777       -3.5438695946        0.7312444391
 H          1.0042189000       -3.6958786229       -0.5109520893
 O         -2.3519672671       -0.1936594352        2.7950796657
 H         -2.5094605584       -1.1331423285        2.5748253967
 H         -3.2426861644        0.2093478068        2.8815737074
 O         -0.1069676347       -0.6152410249        4.1348715129
 H         -0.9458430564       -0.3418163933        3.6947793535
 H         -0.2705050224       -0.5795849201        5.0771157018
 O          2.6820138655       -2.3065993648        1.4696394751
 H          3.5863706853       -2.3660229546        1.7945999703
 H          2.7060283790       -2.6709761885        0.5633196869
 O         -4.8023680707        0.8540293789        2.6128194089
 H         -5.4577025530        0.1550395774        2.4783342708
 H         -4.6918133304        1.2531894476        1.7219952095
 O         -1.5781445664       -3.8266055513       -2.2581418272
 H         -1.5657432868       -4.7376467006       -2.5538634530
 H         -0.9803631517       -3.8007436116       -1.4744038728
 O          2.6537104714       -3.1575989783       -1.0900611397
 H          2.5915888907       -2.5291670547       -1.8200176333
 H          3.5794165306       -3.4842362245       -1.0613156607
 O         -5.1762368909       -3.3207765768        0.8969395501
 H         -4.4646962491       -2.9487649915        0.3306366762
 H         -4.7211165755       -3.6709682888        1.6674511218
 O          4.7275194467        0.0510562985        2.8862247522
 H          4.9298411081       -0.8869768589        2.7799173210
 H          3.7473385738        0.1071681815        2.8155095919
 O         -2.5208344887       -2.8083818993        2.0642191421
 H         -1.6214466654       -3.0846756583        2.2835382676
 H         -2.5464732327       -2.6974647239        1.1027273244
 O         -6.8839895372       -0.5159745575       -1.0563903387
 H         -6.9151051245       -1.4320516757       -1.4169937632
 H         -6.8434052317       -0.6252623387       -0.0873601690
 O          4.6092944255        2.0897182471       -2.3985638196
 H          5.4322982680        2.5832536185       -2.3512376767
 H          4.3069399630        2.0391010561       -1.4651944078
 O          4.6652492732       -0.8608696051       -0.0666839195
 H          5.5502888791       -1.1053962332        0.2300846845
 H          4.6918599182       -0.8446763307       -1.0412019059
 O          4.7675035153       -0.5392130882       -2.7604251338
 H          4.7664851086        0.4474550763       -2.7445449012
 H          3.8818304331       -0.8012541307       -3.0437182205
 O          4.1378103190        2.9181112599        2.5337379769
 H          4.3805823746        2.2139028036        3.1417057996
 H          3.1912391980        3.0835511208        2.6746176079
 O         -6.5336794827       -1.1340711666        1.6017841694
 H         -6.0453546691       -1.9637669447        1.3802681086
 H         -7.3329549827       -1.4017983295        2.0565607062
 O          6.6933676720        1.2101190217        1.5466542095
 H          5.9027971799        0.8305458549        2.0100668245
 H          7.2028179130        1.6502249219        2.2283054403
 O          5.2101217777       -3.7348620046       -0.5951905624
 H          5.8779933887       -3.1922725898       -1.0425358025
 H          5.2624820739       -3.5197792372        0.3441953351
 O          7.3241876118       -1.3402906021        0.7968230141
 H          7.3539378866       -0.3840458134        0.9772010651
 H          7.5189565460       -1.4775658754       -0.1414477316
 O          6.9383765863       -1.8994845112       -1.8810470847
 H          7.5205596061       -2.2298252554       -2.5641812085
 H          6.2349864543       -1.3955551284       -2.3335090111
 O          5.4530770011       -2.6651972293        2.1946718174
 H          6.2575314766       -2.2759537048        1.7954802172
 H          5.7401647247       -3.2747133039        2.8746455108
 O          6.4588477354        3.0056133543       -0.5330315353
 H          6.4803638144        2.3397546024        0.1799989225
 H          7.2691128136        3.5094886040       -0.4653095549
 O         -6.7404192419        2.1697940786       -1.4056601139
 H         -6.9441891606        1.2166004024       -1.4255665398
 H         -7.5772290174        2.6330913605       -1.3721541345
 O         -3.6149756867        4.4214342877        0.1993560276
 H         -3.9695569241        4.4993293573       -0.7085863815
 H         -2.6502333310        4.4418374283        0.0970070263
 O          4.2057642738        4.5511114707        0.1306445890
 H          4.9571678382        4.0570045075       -0.2351757598
 H          4.2730997855        4.4572365711        1.0856565092
 O         -3.4634802925        3.4773859396        2.9398372191
 H         -3.7386781805        3.9903529188        2.1691240890
 H         -4.0992675599        2.7618515741        3.0575530037
 O         -4.4067555284        3.6770576995       -2.2793514631
 H         -3.6691275189        3.0479150353       -2.3327894325
 H         -5.2174021359        3.1608327825       -2.1984473564
 O         -6.4269986511       -3.0239594640       -1.7517219381
 H         -5.6682685289       -3.0119654736       -2.3559223613
 H         -6.1406389874       -3.4590634701       -0.9415541487
 O         -4.0934594034       -2.7253486987       -3.2787463160
 H         -3.3031922282       -3.2694412038       -3.3279414050
 H         -3.8809824260       -1.8902926614       -3.7155733132
