  612
 
 H         -2.2542272090       -0.0622290532       -0.9121820930
 C         -1.3082139589        0.2795555285       -1.3173606964
 H         -1.1711790761       -0.1535540248       -2.3028112718
 C         -0.1689194591       -0.1544034876       -0.4241605857
 H          0.7227420301        0.4004181531       -0.6863227027
 H          0.0046619348       -1.2095417350       -0.5732220075
 O         -1.3468102358        1.6862298486       -1.4770418358
 H         -1.5673063055        2.0645916266       -0.5925194496
 N         -0.4330081676        0.0758172532        1.0053226848
 H         -0.6361332386        1.0735272179        1.1809305773
 H          0.4224498586       -0.2528104625        1.4895383411
 H         -1.2778384271       -0.4716404747        1.3100122372
 O          3.6169124582        7.2188607535        3.0487628483
 H          3.9703426851        7.9141022627        3.6021539852
 H          4.3084675066        6.5170801704        2.9805570063
 O          2.3134820622        2.0803616400       -4.4160022922
 H          1.7341906244        2.3481917740       -3.6752516786
 H          2.2238891763        2.7974618128       -5.0779378404
 O          8.4057541808        3.7503007986       -0.8336046936
 H          7.7184454590        3.9205951186       -1.4957393119
 H          8.0105086369        3.9634142256        0.0273118753
 O         -3.6172936126        1.2337587291        2.6339946621
 H         -3.4338058899        1.6093955456        3.5073682416
 H         -4.4866485756        0.8160764609        2.6910802019
 O         -4.5899018594        4.5083868814        0.4620734213
 H         -4.0948824445        4.2484650387        1.2703242838
 H         -5.5291125576        4.5802214579        0.7306806143
 O         -2.0231474096       -4.1690753551       -4.7146711007
 H         -1.2113525504       -4.4899980427       -5.1125406387
 H         -2.7414053375       -4.7253003394       -5.0488820694
 O          1.9814066185        1.5336230940        0.9261731453
 H          2.6933172784        1.1581183321        1.4674500753
 H          1.6829651179        2.3561181936        1.3499807961
 O          5.2371422335        6.1077636105        0.0625589422
 H          5.7386402970        6.4772982250        0.7880103223
 H          4.7319830032        5.3445475152        0.4361530716
 O          1.8321430262       -1.3236673189        1.5135102967
 H          1.8131805157       -2.1940470773        1.9352000397
 H          2.6311867282       -0.8777624175        1.8107231400
 O          0.9391378669       -3.6471693010       -3.5517488443
 H          1.8407609066       -3.2718436498       -3.5411604014
 H          0.8127662598       -4.0254340030       -4.4425335211
 O          3.2595475666        3.9639314702       -1.9182684463
 H          4.2152926427        3.9654783230       -2.0985989896
 H          2.9439616134        3.0237880749       -1.9448155561
 O          6.3251672558        1.6118001422       -1.8695922887
 H          6.1001990039        1.9540815153       -0.9846016932
 H          5.7862831613        2.0959279598       -2.5257567528
 O         -2.7782963126       -1.1410465960        1.4982050631
 H         -3.2938945074       -0.3728668057        1.1834931289
 H         -2.7872144350       -1.7776841409        0.7617550140
 O         -0.4744588795        1.9771854401        6.2844932782
 H         -0.6840513520        1.5902221205        5.4187200375
 H         -1.1237561870        1.6195458951        6.8983741911
 O         -0.8720768695        3.2920620690        3.4782105684
 H         -1.8088236881        3.3955335900        3.2434466976
 H         -0.7291739711        3.8455108719        4.2646733034
 O          3.8971345749       -0.1509043057       -4.5192615696
 H          3.1395928606        0.4529958523       -4.4813437113
 H          4.2736616973       -0.1304996319       -3.6211066606
 O         -2.2010031343       -6.4911319325        4.3272766960
 H         -2.9660750271       -6.4430384825        4.9060140760
 H         -2.0996103677       -5.5884844225        3.9275229619
 O          0.3586963291       -5.6521155305        1.3957586590
 H          1.1705442434       -5.8655318126        0.9056964104
 H         -0.0860129149       -6.4982722546        1.5358275530
 O          1.6253469521       -1.1577297739        4.3179543815
 H          0.9502502669       -1.6668265213        3.8272195624
 H          2.4911529727       -1.4483134011        3.9748327581
 O         -0.4767817343       -1.1091243886        6.3076631704
 H         -0.3842973077       -2.0443911107        6.0690035826
 H         -0.5849709915       -0.6323725358        5.4584063323
 O          3.5609848631        3.1209023591        3.1712328466
 H          4.3332068687        2.5658539563        3.3721599066
 H          2.7802890562        2.5835772443        3.3777425945
 O         -1.7540195635        4.3674693308       -1.7803546139
 H         -2.5556021498        3.8148469393       -1.8120164879
 H         -1.5180126353        4.4625273896       -0.8536142130
 O         -3.4811839733        4.0003253878        2.8010506980
 H         -3.4208108450        4.9310411636        3.0892646532
 H         -4.3451988976        3.6603486551        3.1039813667
 O         -2.4229955451       -2.5398036458       -0.7329223248
 H         -1.6381435150       -2.9358323924       -0.2947379943
 H         -2.1103136899       -2.3235725522       -1.6345632929
 O          1.8488622666       -2.3075884945       -1.1132804732
 H          2.2273117872       -1.8537138845       -0.3403970418
 H          2.4849500429       -3.0136471974       -1.3188975877
 O          8.2404039868       -0.5140298373       -2.4133069916
 H          8.2238144184       -0.4963726238       -3.3915418091
 H          7.3979091553       -0.1520098483       -2.1121388145
 O         -1.8101757653        2.4015782726        0.9952598257
 H         -2.5615179807        2.0437663950        1.5025018323
 H         -1.7980949296        3.3647369541        1.1225166338
 O          2.4887930314        1.4983511651       -1.6419784074
 H          2.2990941641        1.5481801621       -0.6786734982
 H          3.2558020907        0.8791840953       -1.7303392118
 O          2.2515336064       -2.7858345631        6.4076508395
 H          1.9634994752       -2.1591681438        5.7082478398
 H          1.4509057857       -3.2554264005        6.6547244526
 O         -2.3112794882       -5.3010029472        0.5967722210
 H         -3.1989339379       -4.8840891429        0.4906926088
 H         -2.4496006600       -6.1911226695        0.9705946588
 O         -0.8790342812       -2.1542336727       -6.5066471455
 H         -1.6905847855       -2.6667376047       -6.6176792116
 H         -0.9206247244       -1.4410782462       -7.1984338080
 O          2.8377128934        6.8183905178       -1.1059691288
 H          3.7551485379        6.6840168148       -0.8195846472
 H          2.8124281208        6.7524987668       -2.0708852370
 O         -3.0518605726        3.2627886995       -6.0298645166
 H         -3.2019111447        2.3147129393       -6.1612697487
 H         -2.1176045008        3.3265443425       -5.7722907170
 O          8.0829210854       -4.1834805073       -4.0263078100
 H          7.5742518816       -3.5753898763       -4.5821073487
 H          8.9999481897       -3.8640532808       -4.0285267109
 O         -1.9592682916       -5.0310739414       -2.0473151651
 H         -1.9900158924       -5.1996463967       -1.0799731628
 H         -1.0711085371       -4.7250936561       -2.2451391981
 O         -8.9956040051       -1.6875819339        1.9004222338
 H         -9.7783829170       -1.6743338312        1.3257466516
 H         -8.4903064577       -2.4848757682        1.6546291324
 O         -7.4895245839       -3.5914554544        0.7635759346
 H         -7.2267276141       -4.5228754032        0.6052389324
 H         -6.6580687264       -3.0726626715        0.8079708604
 O         -0.4756785585       -2.0657483944        2.8784534232
 H         -0.2716166378       -2.3866705224        1.9788969822
 H         -0.9886078157       -2.7998556081        3.2582655559
 O          0.5392482138        3.1608006381       -2.7091048137
 H          0.7029232401        3.8353024117       -2.0294149466
 H         -0.1075555092        2.5627770470       -2.2914073817
 O         -0.4267601844        6.1199655708       -3.2730702796
 H         -0.4101000754        6.7845581405       -2.5724215611
 H         -0.8410194999        5.3372373943       -2.8513878125
 O         -6.1530260930        0.1006818389        2.8694911735
 H         -6.5251879731       -0.4409987266        3.5856600782
 H         -6.9289432112        0.5881527120        2.5243848264
 O          8.7887761220        2.6828633720        5.2246203403
 H          9.2218841611        3.0620075387        4.4446760534
 H          8.8822539446        1.7225974737        5.1098730664
 O         -4.7701993282       -6.2180049078       -1.6862805551
 H         -3.9997186036       -6.7876060114       -1.4879803405
 H         -5.0148429372       -6.3636527193       -2.6015470903
 O          3.7372427691        4.0287555807        0.6439956747
 H          3.3567443573        4.0311265166       -0.2646927041
 H          3.0158000943        3.9478538428        1.2804946461
 O          5.7223136000       -2.5150729080       -2.4254782043
 H          6.0575407154       -1.9593605544       -1.7077167603
 H          5.9679969332       -3.4294746415       -2.2079319814
 O          0.6103780666       -6.0363462758        4.3245990506
 H          1.1547121283       -6.6416210430        3.7899573533
 H         -0.2510546297       -6.4585635868        4.4118396417
 O         -4.8223176339       -5.4560124020        5.0703817151
 H         -5.0128921924       -5.8225879229        4.1850437947
 H         -5.5226276673       -4.8085078458        5.2271984173
 O          3.6775791354       -4.2981931069       -1.1987946613
 H          3.8987021075       -4.1872780182       -0.2604043274
 H          4.4345677022       -4.7194874861       -1.6157021446
 O          1.8745152354        4.2453320529       -5.9296678718
 H          1.9558786874        4.8978061204       -5.2043798834
 H          0.9306212633        4.0723034079       -6.0368223906
 O          5.5474204016        2.0572183371        0.6892567457
 H          4.7943280611        2.6842508591        0.6692969552
 H          6.2703477343        2.5900750220        1.0677935783
 O          1.6079391351       -1.3622039540       -5.6385605054
 H          0.7898823152       -1.8139297182       -5.8837717928
 H          1.5440033593       -1.1398233280       -4.6866413830
 O         -1.2532531318       -2.1477534145       -3.1242807653
 H         -1.7037678076       -2.6818462464       -3.7947368239
 H         -0.3601568467       -2.5325447283       -3.1012026359
 O          0.5045337231       -4.5171069021       -6.0649074612
 H          0.0978975827       -3.7362219523       -6.4721393369
 H          1.4037570836       -4.5900454932       -6.4766098276
 O          2.1144534561        3.4162933738        5.7338359288
 H          1.8140159301        2.6705439356        5.1820778717
 H          2.1266353037        4.1769468059        5.1294532382
 O         -1.0902406866       -0.0564464342       -8.0246722885
 H         -0.2959349412        0.4671778364       -7.8237836516
 H         -1.8422964246        0.3492694398       -7.5631526907
 O          4.3909520763       -0.1966031538       -1.9104929250
 H          4.3028385416       -0.8178759972       -1.1433034657
 H          5.2239826386        0.2922158367       -1.7859301390
 O         -3.4613907922        2.0777392913        5.2303506396
 H         -4.4120171899        1.9945036462        5.3700120751
 H         -3.0545174335        1.5045912798        5.9124389596
 O          4.5815051828        2.7541054395        6.4109640992
 H          3.6791977265        3.1125060692        6.2437623647
 H          4.4934171179        2.1910005109        7.2044825263
 O          1.3029178212       -0.5439602719       -3.0980626768
 H          1.4939330004       -1.2458899355       -2.4422024027
 H          1.6538491954        0.2749411405       -2.7122611709
 O         -3.2980868051       -3.5157804278       -7.1744349687
 H         -3.5907094043       -4.3826109318       -6.8421899194
 H         -3.6315270498       -3.4179840337       -8.0656939373
 O         -0.7498250675        0.1508416484       -4.8012999273
 H         -0.1193657268       -0.1096757796       -4.1069789650
 H         -1.0010204648       -0.6637124266       -5.2599545992
 O         -0.0349534850       -7.5205074358       -1.3450222993
 H          0.2811638534       -7.8639371587       -2.1825700241
 H          0.3320600831       -6.5955143413       -1.3023765160
 O          8.4194205831       -4.3647543646        1.8062372761
 H          7.5263433796       -4.5627811484        2.1335413490
 H          8.9560634189       -4.2798602236        2.6233334180
 O          2.8287979830       -6.4402053255        0.5995066461
 H          3.4197880586       -6.8373964228       -0.0693550433
 H          3.3245872613       -5.6816012758        0.9813306166
 O         -5.9715193684        3.0077281458        3.1013873060
 H         -5.9819113048        2.2788479789        3.7415898168
 H         -6.0328775094        2.6200350714        2.2028111875
 O          7.2958916907        3.8575582997        1.6418792396
 H          6.6759827277        4.4199296785        2.1381120951
 H          8.1075314259        3.7410988855        2.1683638141
 O          8.5052805851        2.2814685444       -3.4166058566
 H          8.1348182497        2.2227017623       -4.3052148583
 H          7.7843549038        2.0375188673       -2.8135535653
 O         11.2402941320        3.1374451264       -0.9895870182
 H         11.2534908634        2.7198889946       -0.1131654582
 H         10.3604728025        3.5240013881       -1.0916272103
 O         -4.0394757601        0.6267190360       -0.0857468172
 H         -4.7772965610        1.1184968993        0.3363837831
 H         -4.4401087343       -0.0426758408       -0.6669374208
 O          4.4733329321        3.6650770731       -6.7392656081
 H          4.4249311886        2.7027566268       -6.9122901614
 H          3.5590488297        3.9673396236       -6.8038342048
 O         -1.0616570275        0.2714716415        4.0442529193
 H         -0.7771469901       -0.5069845422        3.5283695387
 H         -2.0253241316        0.1649988071        4.0724862479
 O         -7.6026971271       -0.1913534020       -0.0092656147
 H         -8.0511555978       -0.6107471154        0.7431294866
 H         -8.2907336484        0.0418222392       -0.6450184336
 O         -8.1428779592        1.9438814259       -5.2995017333
 H         -7.7339351814        2.0089925074       -4.4066309199
 H         -8.7223658429        1.1648380681       -5.2309835540
 O          5.9581330122       -6.0834661379        1.0655958848
 H          5.5092240776       -6.3188900111        1.8935111882
 H          5.7165484591       -6.7501119641        0.4179667801
 O          6.2499145263       -3.4785189608        0.2133847915
 H          6.1666900441       -4.4072031363        0.4879603425
 H          7.0592881689       -3.3971826489       -0.3291732710
 O         -6.2540226875        1.7400317800        5.5142992148
 H         -7.1887793209        1.5002663420        5.5736640777
 H         -6.2208176749        2.6971030378        5.7610184406
 O          1.7307764155        5.4393966586        3.9467742623
 H          1.6634792502        4.8359681451        3.1749488190
 H          2.3914035924        6.1071928462        3.7052807152
 O         -6.5130201362        5.8847023188        3.6191211119
 H         -6.6938790740        5.4071223443        2.7913078253
 H         -6.0637374471        6.6905837909        3.3577193179
 O         -1.5283996222        5.0711353837        0.9857780578
 H         -1.1429507942        5.5610293248        1.7366437467
 H         -2.2140711432        5.6423762678        0.6131149648
 O         -0.4479355549        6.6332347867        2.8816549096
 H          0.1769467330        6.1803692012        3.4797583310
 H          0.1232229550        7.1351468293        2.2754889841
 O          1.6721398809       -3.7848472327        2.8498658125
 H          2.0040327897       -4.1892462154        3.6669411896
 H          1.0629300689       -4.4433959267        2.4707150193
 O          6.2522086711       -1.8205097905        2.3326811210
 H          6.8686283809       -1.0727079689        2.2869984751
 H          6.3598535450       -2.3488106036        1.5154586509
 O         -3.8662341331       -1.8473220942       -5.0513345962
 H         -3.5909356834       -2.4458898556       -5.7623343310
 H         -4.8470723822       -1.8633828685       -5.0726300938
 O         -8.4658961627        1.3505357968        2.2753120004
 H         -8.5762852026        1.7341816554        1.3714145862
 H         -8.5414001105        2.1055617513        2.8679176830
 O          4.0838192514        0.9834892872       -7.0243847266
 H          3.1228012008        1.0237889842       -7.1777437624
 H          4.1973595769        0.6042671709       -6.1363919706
 O         -4.5069518622        4.0291369917       -3.9600678529
 H         -3.9832506382        3.7160491027       -4.7391106082
 H         -4.3029131508        3.4229564612       -3.2269304745
 O          7.2180471695       -2.3289122816        5.1116398373
 H          6.4822013574       -2.0782139394        5.6859802515
 H          7.7009146821       -1.5126825384        4.9175211124
 O          4.7635854514       -1.5761181326        6.3465687403
 H          4.5523359705       -0.7034431222        5.9486029468
 H          3.9279408434       -1.9860190255        6.6115140404
 O          0.1906730348       -6.7642193921       -4.3176922461
 H         -0.7651896399       -6.9130279438       -4.2291934866
 H          0.3081027735       -6.1876430396       -5.0806389107
 O          4.8438137628        2.5735736553       -3.8443260716
 H          4.9214835505        3.5169230189       -4.0795975132
 H          3.9132121254        2.3208408604       -4.0416722853
 O          6.2913906496       -5.2559197761       -2.1224426819
 H          6.7460253205       -5.2568725201       -2.9727011034
 H          7.0093035788       -5.4565646450       -1.4694255939
 O          3.8201190003        0.5639303970        4.9891934531
 H          4.2109031290        1.3598924466        5.3972091787
 H          2.9647645170        0.4438368531        5.4441986389
 O         -0.1779242754       -3.2459438563        0.4357250526
 H          0.5755852606       -3.0862176907       -0.1653908046
 H         -0.1319028422       -4.1933559140        0.6615808750
 O          4.0421664979        0.2899458731        2.2449190485
 H          4.0279745930        0.3507922429        3.2186187727
 H          4.7353905264        0.8842550049        1.9169082178
 O         12.2483305408       -0.7203358616        0.9736078449
 H         13.1558483176       -0.6861234509        0.6734087798
 H         11.7084297330       -1.0130260182        0.2049335594
 O         -6.0637938101       -2.9466652441        5.0006437745
 H         -6.9216041812       -2.5563798979        4.7855602493
 H         -5.6314152530       -2.2659628688        5.5495542744
 O         -3.0238145425       -3.5210366115        5.6016371330
 H         -3.2879287217       -3.2365016392        6.4763585714
 H         -3.6322961417       -4.2495692508        5.3513609076
 O        -10.3206636679        2.6646662337       -3.3292587931
 H         -9.7901891573        3.4278285524       -2.9800671607
 H        -10.0499834350        2.5470862387       -4.2443461853
 O         -4.0498304931       -3.4160691034       -2.8469826187
 H         -3.2784161842       -3.9664632164       -2.6080565874
 H         -3.7842627108       -2.8775555153       -3.6196718742
 O         -3.1862332416        4.7684738068        5.7312973636
 H         -3.2358747688        3.8318253617        5.4541482259
 H         -2.2691668906        4.8893268459        6.0132249199
 O        -10.3049663920        4.1341916624        1.6196896577
 H         -9.7296022285        4.1727891467        2.3959746018
 H        -10.1857818287        4.9712557346        1.1316508686
 O         -5.1019962741       -1.2189792484       -1.7299218381
 H         -4.9512264593       -0.6309484666       -2.5059456798
 H         -4.6830174232       -2.0683293040       -1.9727647018
 O         -6.6315405554        3.8017510390       -1.3022158621
 H         -6.1853050178        4.5790055396       -1.6733375436
 H         -6.6478232378        3.0994800098       -1.9828806833
 O         -2.6158312934        0.3392984604        7.1046761477
 H         -3.4585932133       -0.1384950420        7.0263044121
 H         -1.9086756696       -0.3163576162        6.9457027004
 O          6.1312608520       -4.2783498262        3.4006053389
 H          6.4149028524       -4.4570226407        4.2968789963
 H          6.3151405646       -3.3272412899        3.2653637605
 O          6.6134226870       -0.7282672365       -0.2948698480
 H          6.4199819561        0.0952778952        0.1581778865
 H          7.4274064463       -1.0825083007        0.1052991289
 O         -4.5638126320       -3.5273712077        2.7825457909
 H         -4.8042551355       -2.9421855420        2.0419767209
 H         -5.1108561573       -3.2721961495        3.5487152284
 O          1.4878511808        7.6464544459        1.2098132497
 H          2.2270251453        7.6173549468        1.8312323521
 H          1.8785053033        7.4398469010        0.3471604286
 O         -4.0577834268       -5.7315156608       -5.7120305777
 H         -3.6316478714       -6.4251777852       -5.1832505556
 H         -4.8595048009       -5.4620165691       -5.2239236405
 O         -9.5260970368        0.6603044928       -1.8093299196
 H         -9.8531557990        1.3351945057       -2.4508757747
 H        -10.2030801224       -0.0157497535       -1.7633532403
 O         -9.0230382103        1.4271338558        5.2286132695
 H         -9.8422702232        1.1008336500        4.8206999305
 H         -8.9393877137        2.3431687028        4.9141035949
 O         -7.9935173842       -1.1161184805        4.3940563688
 H         -8.3913955994       -0.3310504359        4.7947053322
 H         -8.4636310730       -1.2849592966        3.5604720954
 O         -4.5369954821       -4.0532854234       -0.0300441094
 H         -3.9300311639       -3.3759457075       -0.3798368245
 H         -4.7497052004       -4.6320662999       -0.7738885926
 O         -5.9768429627       -4.7288028140       -4.0959364181
 H         -6.7201047015       -4.9833021151       -3.5143983169
 H         -5.3127861134       -4.2840457085       -3.5181153367
 O         10.7003042554       -0.7680335082       -4.6467353533
 H          9.8013168234       -0.6197397937       -4.9816920352
 H         10.8419196912       -0.0920237306       -3.9608398376
 O          1.0096335352       -5.1239901081       -1.3493071841
 H          0.9834461558       -4.6630525102       -2.2110525713
 H          1.9561741360       -5.2520687625       -1.1878067419
 O         -2.0293763604       -4.2081567044        3.0342223589
 H         -1.8518603871       -4.5431148683        2.1331345452
 H         -2.9498983201       -3.8743623216        2.9994115008
 O         10.8521171311        1.6166187685        1.3023438460
 H         10.0801280516        1.3302848064        0.7599617196
 H         11.4274331656        0.8361056762        1.3591216657
 O         -2.7005812944       -7.8590688791       -1.0961600153
 H         -2.8574960925       -8.2048586963       -0.2154452089
 H         -1.7353225656       -7.6782794766       -1.1530557416
 O         -6.1071759612        0.3358194555       -6.1483589421
 H         -6.8338592299        0.9785056104       -6.0157254926
 H         -6.4837590393       -0.5486216069       -6.0629657441
 O          0.8862990597        4.9982226427       -0.6188197773
 H          1.7063648228        5.4956826919       -0.7831678417
 H          0.1926472977        5.6809798961       -0.6177569333
 O          4.1644502739       -1.6976168517        0.2008024315
 H          4.4032419128       -1.1338449750        0.9451264245
 H          4.8339790804       -2.4010037038        0.1636123900
 O          1.1178085660        3.9206770267        1.8149577666
 H          0.2934315857        3.6773791539        2.2909546135
 H          0.8618108017        4.3309256842        0.9603723339
 O          1.2994536099        0.9616851079       -6.9858468731
 H          1.3835321651        0.1345428355       -6.4651982273
 H          0.9770110716        1.6390330110       -6.3814034397
 O         -6.0030896838        6.2965806363       -2.3266105903
 H         -5.1127344303        6.5414954526       -2.6129843617
 H         -6.5014700604        6.1293601800       -3.1334650356
 O         -8.8198889236        2.6731181290        0.0244597069
 H         -9.5447213596        3.1605815702        0.4770806710
 H         -9.2269617199        2.0566584355       -0.5988119296
 O          8.7312969414        1.1758611418       -0.1908541261
 H          8.6143622907        2.0820932822       -0.5491751066
 H          8.8111834684        0.5813145922       -0.9530714818
 O         -4.8465607129        7.5311782124        1.6667413541
 H         -4.2896307842        7.4542437319        0.8792136286
 H         -4.2722576452        7.2889315038        2.4075699298
 O          8.8384080044       -1.8093388559        0.9311250278
 H          9.4563695202       -1.7553715736        0.1807765232
 H          8.6829929095       -2.7601465297        1.1127637501
 O          2.0943304158       -7.7860828845        2.7584637631
 H          2.3821667545       -7.3160964048        1.9410875173
 H          2.9075183588       -7.8670447022        3.2664168704
 O         10.4813755800       -1.4326171949        3.0177164200
 H         11.3147423739       -1.2607193356        2.5660590802
 H          9.8153660523       -1.4911727543        2.2924485335
 O         -2.5416373198       -6.9823381846       -3.7759811457
 H         -2.6694475347       -7.7334163469       -3.1909416236
 H         -2.3737916861       -6.2172670038       -3.1740665567
 O          8.3057260756       -3.0484924792       -1.4965216586
 H          8.3593109226       -2.1093376100       -1.7669538669
 H          8.2229818156       -3.5338457686       -2.3308262045
 O         -4.9526871625       -0.6933990422        6.0984813190
 H         -4.4025527888       -0.7520626395        5.2841752149
 H         -5.5127293102        0.0877800427        5.9905951261
 O          8.4187329233       -5.6789001996       -0.5982339799
 H          9.0137895103       -5.0270782272       -0.9797888222
 H          8.3586236077       -5.4432058167        0.3438480886
 O         10.5426233097       -3.0348149088       -3.3777758924
 H         11.3411927628       -3.5206657664       -3.5795396308
 H         10.6015412187       -2.1821392444       -3.8973091808
 O          4.1275838182        0.7351584830        8.1301309914
 H          4.6149160981       -0.0650396706        7.9061827915
 H          3.2149538973        0.5857554307        7.8253104209
 O          9.4762470349       -3.7317627428        4.1654128848
 H         10.0029345295       -2.9651538318        3.8850184270
 H          8.7025937270       -3.3648617399        4.6169831876
 O         -2.6808465816       -7.5877283090        1.9478078171
 H         -1.8674348141       -8.0751105108        1.7314291980
 H         -2.5332991641       -7.3036505572        2.8795388346
 O        -10.7002877047        0.3219604863        3.3506245429
 H        -10.7748268144       -0.6314250392        3.3080809611
 H         -9.9016468294        0.5605368170        2.8285731856
 O         -6.1558238386        1.9506394196        0.6347598701
 H         -6.7571179833        1.2114120108        0.4007677578
 H         -6.3254125932        2.6545692700       -0.0169398183
 O         -7.5798511002       -1.3048447271       -2.7686714146
 H         -8.1425511867       -1.9238657348       -2.2566277108
 H         -6.7602971841       -1.2124213398       -2.2425601782
 O          4.9019754701        5.1833648430       -4.5326047763
 H          4.9062102207        4.8367513131       -5.4448717831
 H          4.0295662760        5.5746643130       -4.3976274894
 O          2.9508651585       -4.5369792942       -7.0017333105
 H          3.3108875208       -3.6571960532       -7.1861877478
 H          3.4771806001       -4.8649382378       -6.2484356572
 O         -9.3561072674       -0.3805995372       -4.6257685052
 H         -9.4436352463       -1.1535435765       -5.1824422244
 H         -8.7594153802       -0.6296349985       -3.8964171533
 O         -8.4396024197        3.7588896734        3.8161302904
 H         -8.4315942606        4.5894128430        4.2955324558
 H         -7.5034979946        3.6374693858        3.5188574465
 O         -5.1230665292       -6.1214846791        2.4128675606
 H         -4.8798049342       -5.1724557197        2.3263606289
 H         -4.3601713031       -6.6537367393        2.1591323256
 O          9.7404786849        3.5038032148        2.7756485921
 H         10.1605477632        2.7412294442        2.3100737568
 H         10.3442179603        4.2387974108        2.6687814697
 O         -3.3755526125        6.3238881553       -3.1841400258
 H         -3.7081854168        5.4540649268       -3.5123031578
 H         -2.4716670998        6.4000171516       -3.5111045552
 O        -11.1522186597        1.1178779203        0.6455585361
 H        -11.5001156534        1.8427463270        0.0875618759
 H        -11.3953865679        1.3088450776        1.5562552734
 O         -7.0777408924        1.7378778602       -2.8668600617
 H         -6.2395403401        1.2686650039       -3.1104653912
 H         -7.6669587779        1.0869389431       -2.4691324450
 O         -3.1250045263        6.5203603742        3.6487206902
 H         -2.1848002392        6.7040968419        3.5006905847
 H         -3.2012593997        6.1220875837        4.5365530800
 O          4.5460197503       -7.2700512980       -1.3041283526
 H          3.8526972546       -7.2431400748       -1.9869583149
 H          5.2360482715       -6.6778973556       -1.6451187692
 O          2.2000480254        5.7082117774       -3.6656093628
 H          2.4283574131        4.9797018922       -3.0494150677
 H          1.2354505443        5.8722198115       -3.5548802330
 O         -0.1979739706       -8.3651500894        1.2726833204
 H          0.0513763629       -8.2492031182        0.3401793620
 H          0.6124212732       -8.4701963148        1.7898688995
 O        -11.0102945063       -1.4078983972        0.0408203494
 H        -11.9041335207       -1.7440941329        0.0978057313
 H        -11.0655126670       -0.4326004927        0.2317873642
 O          3.4916077748       -4.6026702516        4.7206269746
 H          3.1066046259       -4.2499154941        5.5357358686
 H          3.8844250779       -3.8231101471        4.2793467094
 O          4.6136500431       -6.7633249641        3.4634574979
 H          5.3468726022       -7.0130577403        4.0244568873
 H          4.1865103427       -5.9994329237        3.8979059076
 O          3.3987414101       -2.6570931828       -3.6569135733
 H          3.4800573835       -1.8100961705       -4.1359117799
 H          4.0414099694       -2.6022463277       -2.9246053256
 O          7.9868189639       -0.5249834833       -5.0734062202
 H          7.3413634628       -1.2442500120       -5.2239465102
 H          7.5542476545        0.2994637663       -5.3558763184
 O         -9.7545519236        6.0926519782       -0.1654173351
 H         -9.0270814626        6.7073254971       -0.0102008844
 H         -9.5648837895        5.6812222070       -1.0242605336
 O         -8.8944135988        4.6402552050       -2.3662038452
 H         -8.2372856966        4.2309191741       -1.7559061678
 H         -8.3666694045        4.8389551079       -3.1608045089
 O          5.9814282971        1.9826151367        3.6260241778
 H          6.0368758730        1.3539078151        4.3754293267
 H          6.2959544940        2.8231114335        4.0072199120
 O          8.8010392564       -0.0198369937        4.5378160367
 H          8.3897090474        0.1830142514        3.6648910165
 H          9.6092644151       -0.4968772768        4.2820389353
 O         -6.7576589300       -6.1220355880        0.2249812112
 H         -6.0509589151       -6.2282304705       -0.4350944303
 H         -6.3231143574       -6.2738935844        1.0840736393
 O         -0.4860643451        4.6182166759        5.8447951998
 H          0.3833271008        5.0205607968        5.8912727887
 H         -0.3776203606        3.7022156249        6.1789469632
 O         -7.0824463371        4.6459811267       -4.4025556713
 H         -7.4290537334        4.0612082409       -5.0807845971
 H         -6.1423264777        4.3806058761       -4.2832638757
 O         -7.1633585841        4.7341467696        1.2206658866
 H         -7.3019693855        5.5905844216        0.7635042980
 H         -7.6741344436        4.0716401144        0.7375931329
 O         -9.0263805793       -2.9235490045       -1.2636439005
 H         -9.7935179538       -2.4695806251       -0.8931838977
 H         -8.4392064766       -3.1510835017       -0.4977018164
 O          3.9302692514       -4.2239756116        1.5507593325
 H          4.6648734235       -4.3065178285        2.1718864312
 H          3.1400273199       -3.9348346107        2.0530086800
 O          5.9870588495        4.5109451838       -2.0244815011
 H          5.9623302674        4.9525209984       -2.8817327682
 H          5.8505085039        5.1894326882       -1.3416568826
 O          4.3595037830       -4.8927433421       -4.7184376130
 H          5.2791462262       -4.6980652620       -4.9111095003
 H          3.9834843351       -4.0678898193       -4.3298938137
 O        -11.8415431129        3.1177310273       -0.9951389164
 H        -11.5118563061        3.0219767072       -1.8985991327
 H        -11.6047618924        3.9976166161       -0.6919697641
 O          6.7562011102        1.8323028832       -5.5677150096
 H          6.0014608481        2.0145808757       -4.9661057071
 H          6.5312748393        2.2328983751       -6.4079852631
 O          1.7556713785        0.4209025098        6.7559139566
 H          1.2118511892        1.2224449283        6.7218931631
 H          1.1088555601       -0.3062480805        6.7096178525
 O          7.6619387354        0.5065761073        2.2129616317
 H          8.0723703761        0.7900085822        1.3779175568
 H          7.0512787778        1.1971372313        2.5341896285
 O          4.0650991874       -2.1560821447        3.7496240365
 H          4.4439384642       -1.9630176988        4.6232279596
 H          4.7773997349       -1.9472943319        3.1147507687
 O         -4.9806216160        0.4881734305       -3.7001655941
 H         -4.1194665716        0.9899329637       -3.7260453506
 H         -5.2716142504        0.3919597645       -4.6281879784
 O          5.3019118334        5.1733145047        2.9990425212
 H          4.6034089907        4.4873590153        2.9406179707
 H          5.7289216014        5.0095698798        3.8606930694
 O         -3.3316937289        6.6024600224       -0.4934447328
 H         -3.3143132794        6.5375390257       -1.4719027530
 H         -3.8959674967        5.8394973323       -0.2174307331
 O         -5.9621565745        4.3558394050        5.8398807985
 H         -5.0599871686        4.6044527057        6.0759051005
 H         -6.1711784045        4.8969733047        5.0564996080
 O         -7.1273096674        7.1175234018        0.0584797581
 H         -6.4278675086        7.4618613545        0.6332244964
 H         -6.7180635774        6.9427575994       -0.8067123486
 O         -0.4126547189        2.8669208959       -5.2611645815
 H         -0.6020368812        1.9177679389       -5.1881496601
 H         -0.2259309466        3.1536809484       -4.3490059444
 O          1.3858424045        1.5599880295        3.8200616362
 H          1.4201274022        0.6018382305        4.0045461505
 H          0.4647478876        1.7938691560        3.6480747906
 O         -0.6432576752        7.2817376845       -0.7583912758
 H         -1.5968885917        7.2116585670       -0.5945187257
 H         -0.2572930754        7.8424585641       -0.0821883870
 O         -3.3420532424        0.4727931228       -6.4491053946
 H         -4.2536108349        0.5641909085       -6.7496557819
 H         -3.3645744927       -0.2887272897       -5.8380741237
 O         10.6706707830        0.9760329569       -2.5173239122
 H         11.1169070302        1.7131942421       -2.0578859924
 H          9.8679682008        1.3986697040       -2.8942843911
 O          4.0158763116       -1.9623784508       -6.7540134274
 H          3.1758091747       -1.7413475727       -6.3056040651
 H          4.2506103773       -1.1782823302       -7.2611553955
 O         -2.7229662850        1.6848363375       -3.7830202341
 H         -2.1292006196        1.0563131673       -4.2263425966
 H         -2.3335718897        1.8608078460       -2.9119775963
 O         -3.9692187593        2.8810677224       -1.5518506482
 H         -3.8528329949        2.0129412995       -1.1246770447
 H         -4.3089045260        3.4701162271       -0.8490592973
 O          6.5215752979        4.1427797778        5.1547665900
 H          7.3849353886        3.7404243932        5.3709677495
 H          5.8653752059        3.7519436473        5.7639385871
 O         10.6684448042       -1.3430201695       -1.0993096200
 H         10.6116303772       -0.5058604169       -1.6096847796
 H         10.5920232632       -2.0489565536       -1.7628037379
 O         -5.5539782875       -1.7666645282        1.0449848651
 H         -5.5757443588       -1.4544193750        0.1338859736
 H         -5.7859298763       -1.0202344424        1.6331965079
 O         -6.5364535761       -2.2358264237       -5.0599628766
 H         -6.9251965558       -1.8843324375       -4.2304199044
 H         -6.4473912577       -3.1952294692       -4.9046631722
 O         -7.9301666620       -5.2583872090       -2.3213287775
 H         -8.4615154122       -4.4834504658       -2.0911935243
 H         -7.7318734907       -5.7025899021       -1.4896240453
 O          2.7311058321       -6.5791951720       -3.1656891061
 H          1.8727591839       -6.6971637752       -3.5928726054
 H          3.2871126933       -6.0800381226       -3.7783998857
 O         -3.3061305741       -1.2109856155        4.1259009829
 H         -3.0867041525       -2.0795488419        4.4990180817
 H         -3.2317194410       -1.2832126315        3.1543035937
 O          6.1574507134       -2.4854182809       -5.1018791650
 H          5.3852598757       -2.2955335461       -5.6683277806
 H          5.8847059938       -2.3609253391       -4.1712119285
 O          6.5062330985        0.6300408880        5.8828118219
 H          7.4108909960        0.3590754786        5.6807699352
 H          6.5399162496        1.2192119623        6.6366996873
 O         -0.2579681610       -3.7103023906        5.5155029947
 H          0.1272036114       -4.4719949760        5.0527610011
 H         -1.2177799638       -3.8228314959        5.4613576355
