  86

 H          0.4630927077        1.1941025327        0.8323452957
 C          0.5529035762        0.5095402429       -0.0251092076
 H          0.4633421183        1.0989800595       -0.9466436098
 C         -0.5779259333       -0.5149488604        0.0205351877
 H         -0.4518492548       -1.1270258239        0.9278134322
 H         -0.4840892690       -1.1748678657       -0.8448928485
 N         -1.8603253886        0.1647702477       -0.0623309413
 H         -2.6131021662       -0.5138473281       -0.0751527666
 H         -1.9956541838        0.7570092261        0.7508171934
 O          1.7808081026       -0.1833448060        0.0209869108
 H          2.5006908394        0.4507195083       -0.0567171281
 O          2.3525970196       -0.9991431219        2.5367083686
 H          3.3017088461       -1.1132384266        2.3756912268
 H          2.0053272140       -0.7952535368        1.6432609358
 O          2.9602912015        2.4045387786        0.5909308503
 H          2.8068064516        2.2239078632        1.5494837869
 H          2.4541801744        3.1877470913        0.3731492174
 O         -2.0694929265        1.3499805005       -2.4076030826
 H         -1.8916709418        0.9578805151       -1.4984436381
 H         -3.0382629447        1.4629345831       -2.3839297485
 O         -1.1377539667        3.5402822366        0.3581599359
 H         -0.6962430387        3.4528719085       -0.5093069457
 H         -2.0302092522        3.1834319943        0.2611241519
 O         -0.3009113609        2.8146379220        2.7380101282
 H         -0.3368616495        3.6021385830        3.2811223192
 H         -0.5407484227        3.1032801069        1.8200310411
 O          2.2518489872        1.7465974365        3.0602931099
 H          2.2687032124        0.7754071857        3.0855929368
 H          1.3187499489        2.0153449450        3.0679477775
 O          4.2894296085        0.7913598207       -1.0713741715
 H          3.6615161294        0.9496344251       -1.8010376550
 H          4.1313430222        1.5277244854       -0.4571387902
 O          4.6116490192       -1.2063378567        0.9366864220
 H          5.5678058220       -1.0939228093        0.9953473325
 H          4.3631558287       -0.6450614345        0.1838662415
 O          2.2571743604        1.4689368653       -2.8342217552
 H          2.6163889257        1.8803003457       -3.6212955459
 H          1.9116723890        0.5811138456       -3.1301927343
 O          1.3885009586       -0.8637818872       -3.6464326092
 H          1.6347982453       -1.5569097037       -3.0106103839
 H          0.4159875437       -0.8827750117       -3.6952104981
 O         -4.5741268086        1.1618011602       -1.4321344436
 H         -4.3672287815        1.6210355196       -0.6058582703
 H         -4.5642419795        0.2173287290       -1.2114750230
 O         -1.3661141315       -0.7926077711       -3.7201336214
 H         -1.7211706324       -0.7342577497       -4.6071010379
 H         -1.6302717548        0.0509256200       -3.2541935114
 O         -2.5567102982       -2.7390122080       -2.1947177640
 H         -1.8402021130       -3.1691666125       -1.6954216090
 H         -2.1214591500       -2.0850730360       -2.7722612780
 O         -4.3539351747       -1.5801696519       -0.6965556476
 H         -5.1857357211       -2.0228524052       -0.8700347281
 H         -3.6818861331       -2.0326283498       -1.2819840124
 O         -0.3943895019       -3.7988362437       -0.8479227378
 H         -0.1882313234       -4.7292498876       -0.9433436358
 H          0.4335200360       -3.3088536560       -1.1042790306
 O          1.8023766742       -2.4865092936       -1.4598009295
 H          2.5020341453       -3.0179315152       -0.9943552619
 H          1.7721625563       -1.6542917278       -0.9542548417
 O          3.5001256971       -3.6439917882        0.1512206762
 H          2.9157883490       -3.8624987059        0.9032691380
 H          4.0261793866       -2.8838338541        0.4519088693
 O          1.7709350608       -3.7346311508        2.2616518762
 H          0.8100836579       -3.8077148670        2.2033452096
 H          1.9546296863       -2.8290596799        2.5573069736
 O         -1.0088825339       -3.3565946132        1.8137949687
 H         -1.9507488462       -3.1182482852        1.8844953958
 H         -0.8480929990       -3.5051442049        0.8646058777
 O         -2.2339941910        0.8657520419        2.8288875909
 H         -1.7132647417        0.0783931097        3.0776113493
 H         -1.5945964074        1.5903116432        2.9457579703
 O         -3.7373219853        2.3564220518        1.0421732791
 H         -3.3649016099        1.7974439804        1.7476842526
 H         -4.3335138309        2.9737209374        1.4673968226
 O         -0.4428298375       -1.1354266804        3.3846142035
 H          0.5157628771       -1.0481743560        3.3937468555
 H         -0.6344352214       -1.9964484765        2.9752674845
 O         -3.4607627264       -2.1246047979        1.8735762001
 H         -3.8503160881       -1.9412892381        1.0009421776
 H         -3.3576623498       -1.2801235720        2.3200260081
 O          0.0069809216        3.1284752973       -2.0980917867
 H          0.8148662647        2.6463434412       -2.3318129954
 H         -0.7386091045        2.5897332539       -2.4160862620
 O          6.8617864407       -0.0639856973       -0.2680902311
 H          7.4738420617       -0.2969868474       -0.9662697713
 H          6.0940470982        0.3451330262       -0.6957026608
