  132

 H         -0.5425054112       -1.1597996586        0.9180873604
 C         -0.6112510051       -0.5412956739        0.0100749177
 H         -0.5391308394       -1.1969144472       -0.8712436600
 C          0.5103658648        0.5037878333       -0.0094871838
 H          0.3911098456        1.1518924073        0.8600966291
 H          0.3944399221        1.1152669955       -0.9056411626
 O         -1.7891825171        0.2100258093       -0.0077307039
 H         -2.5646581754       -0.3620747641        0.0026734602
 N          1.8637421187       -0.1172780948        0.0059475210
 H          1.9871272141       -0.7237037740       -0.8163106225
 H          1.9839787968       -0.6890763206        0.8531041604
 H          2.5930828886        0.6072400316       -0.0077051379
 O          4.4449976754        0.2067030733        0.9653890146
 H          5.2828786558        0.0864572151        1.4708403438
 H          4.6837256642       -0.0632266521        0.0513456096
 O          2.8393196564       -1.5571527456        2.0986377093
 H          3.5911959408       -0.9837484734        1.8149929241
 H          2.7911331663       -1.4534595178        3.0514293256
 O          1.6098406776        1.1098424429        3.6422786013
 H          2.2167596250        0.8198324651        4.3283881219
 H          2.1720967917        1.6239244924        3.0124873903
 O          3.7844680379        0.9766456692       -3.2692273069
 H          4.2044766356        1.4852614630       -3.9638330404
 H          2.8544111830        0.8180199543       -3.5840844940
 O         -4.2630551097       -0.1379293273        0.9244211827
 H         -4.8264697422        0.2226015955        1.6427784385
 H         -4.6216883964       -1.0443497835        0.7879128985
 O          1.3172957885        0.7325484514       -4.1116239505
 H          0.9828235727       -0.1624862847       -4.2763050665
 H          0.5962732318        1.1899479544       -3.6514872342
 O          3.2324446717        2.3990109012        1.9895851981
 H          3.7127335776        1.6886846757        1.5151402712
 H          2.6604240934        2.8324616411        1.3489244702
 O          5.2434006541       -0.5046287753       -1.4682929444
 H          6.1219834154       -0.1222492125       -1.3034066184
 H          4.8277158648       -0.0156282659       -2.1982274060
 O          3.2207158597        2.0660845056       -0.8831710239
 H          2.4870209593        2.6889385766       -1.0949787456
 H          3.4802193051        1.6991766768       -1.7518203362
 O          1.8222824199       -2.0146314966       -1.8626638843
 H          2.7285995332       -2.3884398342       -2.0310829419
 H          1.3640547186       -2.6963893593       -1.3223712062
 O         -0.8416155969        1.5660190978       -2.5977313757
 H         -1.5594462920        2.2062882187       -2.4805906956
 H         -1.2666927932        0.6928448956       -2.5297683722
 O          1.0542898588        3.4965934729       -1.3982976288
 H          0.3944371033        3.0142870949       -1.9109100626
 H          0.7062613001        3.5933455990       -0.4943533108
 O         -2.7513634903        3.3004175694       -1.6756910969
 H         -3.0430884072        4.1918612335       -1.8647247643
 H         -2.4950708405        3.2568187972       -0.7228263337
 O         -2.1888092152        2.7705373383        0.8554352122
 H         -2.0466494735        1.8275667693        0.6500949784
 H         -3.0414573204        2.8296533913        1.3315723648
 O          0.5352686379       -3.7912496479       -0.3484114239
 H          0.3731432654       -3.7425889323        0.6097876831
 H         -0.3550398469       -3.8283994646       -0.7458195995
 O          0.0994660136       -1.1307924729        3.2086665603
 H         -0.8140641775       -0.7987723741        3.2401090773
 H          0.6719893850       -0.3556168039        3.3284257286
 O         -0.0195899925       -3.6041165654        2.3222858324
 H          0.2924899361       -4.2360870478        2.9697715033
 H          0.1579628275       -2.7080602576        2.6861512988
 O         -2.0599839701       -3.2901064807       -1.0910626276
 H         -2.3161173488       -3.0479129823       -0.1862738010
 H         -2.0401058817       -2.4683136868       -1.6225003916
 O          0.2752278785       -1.8333699261       -4.0216944808
 H          0.4338847178       -2.5877873813       -4.5888940000
 H          0.8654032588       -1.9361373304       -3.2365679332
 O         -2.4145494063       -0.0551796362        2.9836821123
 H         -2.9434911705        0.0414617265        2.1710262741
 H         -2.0046462392        0.8158230287        3.1441353660
 O         -1.9759780656       -1.0553239699       -2.6808080695
 H         -2.8519995452       -1.0222557510       -3.0945008418
 H         -1.3315625134       -1.3425670920       -3.3507783420
 O          4.2260293530       -3.0078381345       -1.8748564098
 H          4.7713335044       -2.2162027759       -1.7364880818
 H          4.0960808573       -3.4106083421       -0.9995919480
 O         -2.5584983060       -2.7252728354        1.6118396038
 H         -2.6172785488       -1.9639927340        2.2011045453
 H         -1.7841656560       -3.2287487028        1.9093974441
 O         -4.7625830422       -3.2586668406       -1.6983789048
 H         -3.8559630835       -3.5986498105       -1.6515344598
 H         -4.7195244320       -2.4397340792       -2.2348057564
 O         -4.5442663816        1.2251057533       -1.4154893731
 H         -4.3314159784        0.7852994092       -0.5690662433
 H         -3.8856746478        1.9212434509       -1.5695018581
 O         -6.4816604898        2.0522505649        0.2877708362
 H         -6.0065254117        1.8834605130       -0.5454094600
 H         -6.8664153098        1.1949029834        0.5264671656
 O          3.3335899129       -3.7898126472        0.6235896643
 H          2.5213295877       -4.1893793755        0.2945974339
 H          3.0590277800       -3.0606123401        1.2105956398
 O          7.3357641676        0.8503885109       -0.3204205058
 H          8.1590638497        1.1878856893       -0.6737355261
 H          6.7543480916        1.6341288600       -0.1757940217
 O          5.6452915280        2.8891647701        0.0150550632
 H          5.4942279535        3.2867080708        0.8740932987
 H          4.7630751057        2.6449108728       -0.3345666242
 O          6.7169991353       -0.4302193047        2.1136404362
 H          7.2471965134       -0.0291408852        1.4078616726
 H          6.6050702199       -1.3599188609        1.8509336409
 O          5.9949450962       -2.8157747175        0.9435345812
 H          6.5755930011       -3.3274663639        0.3793230659
 H          5.1506606335       -3.2841921416        0.9692230965
 O          0.4196795175        3.4714095426        1.2670601061
 H          0.5250334110        4.2417241927        1.8259263823
 H         -0.5286372473        3.2368892380        1.3030483699
 O         -4.6770823578        2.9805165288        1.9322323014
 H         -5.3671468855        2.6381444249        1.2905421361
 H         -4.9493957018        3.8717720098        2.1504170696
 O         -4.6968289768       -0.8887006618       -3.0649500925
 H         -4.6318322007       -0.0761903062       -2.5205467073
 H         -5.6567615515       -1.0109755292       -3.1522768190
 O         -5.2980912521       -2.5659832294        0.7577965088
 H         -4.6514926818       -3.0513591487        1.2800326230
 H         -5.1817373728       -2.8831212256       -0.1791314917
 O         -7.3075801374       -0.6391971894        0.6258264010
 H         -8.0723281547       -0.7674682234        1.1880823574
 H         -6.6898889128       -1.3633441009        0.8208916895
 O          4.3598567046        0.1925892113        3.8855390336
 H          5.2272237732       -0.1988740725        3.7389820111
 H          4.4518442493        1.1188495502        3.6465934698
 O         -0.9410486568        2.1623736088        3.5593351710
 H         -0.0189004400        1.8500886174        3.5967007409
 H         -1.1245959482        2.5784736181        4.4013756164
 O         -7.2038829905       -1.3975725696       -2.1298171178
 H         -7.3224222517       -0.9876381094       -1.2605760190
 H         -7.1182300261       -2.3414104896       -1.9760432585
 O         -5.2817671440        0.6664878400        3.2649192571
 H         -4.5491293248        0.3585188295        3.8060188272
 H         -5.1273375258        1.6086389718        3.0876354670
