  451

 H         -0.0000000000        0.0000000000       -0.0000000000
 O          0.1990131826       -0.9451537701        0.3403365483
 H          0.4854706878       -1.5551063547       -0.4354537124
 H          0.8804574921       -0.9608486717        1.0949116760
 O         -0.4497471608        1.3619927635       -0.3862688577
 H          0.0484384156        2.1709432267       -0.0843225372
 H         -0.7445392613        1.5557450486       -1.3033269627
 O          1.9535180534       -1.3289365263        2.1538981575
 H          1.4693284448       -1.4096656818        3.0025504174
 H          2.6560238552       -0.6561534046        2.3216111490
 O          2.4818197598        0.6210624723        0.1841335169
 H          2.2220977379        1.1883793474        0.9477680786
 H          3.4518075684        0.7041404007        0.1087881443
 O         -1.2119114797        2.0560947590       -2.7776843341
 H         -2.0556224783        1.7362909634       -3.1721272192
 H         -0.5799133830        2.0999127907       -3.5243538101
 O         -2.3552684235        0.6337172884        1.2588367057
 H         -2.3944247343       -0.3066397837        0.9832851501
 H         -1.7117154210        1.0491472104        0.6506673205
 O          1.9172154688        2.0869143675        2.2420835969
 H          1.0255988202        2.4586547091        2.0949176566
 H          1.8533602482        1.5647010570        3.0550640727
 O         -2.4149261526       -1.8081694309        0.2051397373
 H         -1.6689689385       -2.3574060807        0.4999583958
 H         -2.1915172103       -1.4717986843       -0.6864729763
 O          1.8913354565        1.6793535307       -2.0897021550
 H          1.4787392541        2.5634974174       -2.0919532916
 H          2.0153637439        1.3699442606       -1.1621687143
 O          0.4234843013       -0.2254338534       -3.0572752937
 H          0.9753524870        0.5264831797       -2.7344228856
 H         -0.4874583071       -0.1041214148       -2.7179558968
 O          0.7319914988       -2.3348266447       -1.6767626056
 H         -0.1571105937       -2.7493715153       -1.7944979160
 H          0.7400976747       -1.5605186066       -2.3078151452
 O          2.2082375757       -4.1100434038        0.4557626936
 H          2.2542084954       -4.4106336061       -0.4790725449
 H          1.3099370615       -3.7451869781        0.5821274307
 O         -2.8801606473        3.7612237711       -1.7027261056
 H         -3.2855833827        4.2763277580       -2.4227414665
 H         -2.1280735062        3.2957048341       -2.1275211336
 O          3.6064437573       -3.2459040153        2.9041443825
 H          4.4081647517       -2.9264519469        2.4483074700
 H          2.8679769115       -2.7259348373        2.5307135832
 O         -0.2184300765        0.0745057576        2.8384160139
 H         -0.6219155253       -0.7928528382        3.0012291249
 H         -0.9134824053        0.5927149722        2.4058335012
 O          5.5621509195       -2.6524651169        1.1480405048
 H          4.8736730031       -2.2710668655        0.5523200578
 H          5.7902089361       -3.5020548619        0.7599526320
 O          0.7261942668        3.5186597118        0.2537398129
 H          0.1178508876        4.2307475591       -0.0081333920
 H          1.6151542337        3.7227357473       -0.0956768070
 O         -1.6762226791       -2.0731883719        3.3109112460
 H         -1.4621429430       -2.6103624970        4.0934602750
 H         -2.2049644389       -2.6467613006        2.7231850942
 O         -0.6411319492        2.8914437007        2.5765502060
 H         -1.4160673582        2.9735756248        1.9984473860
 H         -0.9552071038        2.4909656165        3.4138146872
 O         -1.3762420029        4.6875789767       -3.8828836086
 H         -1.0930576306        5.5412516516       -4.2271259801
 H         -0.5992535667        4.3442748925       -3.3926721668
 O          5.1279384297        0.3614067918        0.2342327608
 H          5.4172906244       -0.3686472157       -0.3487619118
 H          5.6536388015        1.1282013926       -0.0620038516
 O          3.2524887871        3.8700962872       -0.5844496675
 H          3.6021113391        4.7658880030       -0.6852284740
 H          3.7317298596        3.4715628613        0.1614881164
 O          3.4501526141       -1.8751505101       -0.2366342854
 H          2.9659281541       -1.1143085553        0.1216716217
 H          2.9796304074       -2.6875377129        0.0471944124
 O         -0.7516544807       -3.6126006810       -4.6086753056
 H         -0.2036172756       -2.9024974238       -5.0021460263
 H         -1.2590905765       -4.0242157668       -5.3463066548
 O          4.5049346854        2.8448922059        1.5982395612
 H          5.4212012115        2.5175013964        1.5826326976
 H          3.9907582284        2.1918013249        2.0925596806
 O         -2.0217188101       -0.4688627738       -2.0706926971
 H         -2.6635974976        0.2131052869       -1.7848355999
 H         -2.3462008098       -0.7990312367       -2.9296089020
 O         -3.7293134936        1.3002776908       -1.0553127742
 H         -3.5757887849        1.1611885896       -0.1071563483
 H         -3.5404991723        2.2424958055       -1.2404750769
 O         -1.5777826787        1.7200616071        4.7785114583
 H         -1.4547310038        2.1981995156        5.6267456910
 H         -2.5483906766        1.7270389723        4.6305322386
 O          1.2523089118        1.1436625849        4.7163498022
 H          0.5915304276        0.6974752614        4.1372131569
 H          0.9922209809        2.0875944917        4.7544634615
 O          0.9627008165        4.0780104888       -2.7412513767
 H          1.2419164591        4.9061091481       -2.3051581240
 H          1.5726429838        3.9705338697       -3.4990160725
 O          4.4113875916        2.2541650027       -2.6049079565
 H          3.5007177217        1.9444942002       -2.3896144022
 H          4.3585815348        3.2262578303       -2.5820433198
 O         -0.0385599722        5.4327796329        2.9183302205
 H         -0.2062978604        4.4653865030        2.8356865643
 H         -0.8625192393        5.8659189936        2.6420599996
 O         -3.4450131263       -0.1297007673        3.6340818062
 H         -2.6704869463       -0.7304870937        3.5693591842
 H         -3.4051708161        0.4344386232        2.8487000466
 O          0.6412778237       -4.2173603095        3.2944280119
 H          0.7606533580       -3.4023249266        3.8192442548
 H          1.3611423575       -4.8156971934        3.5564828428
 O          3.7833750441        1.2327186813        5.6341672338
 H          4.5951345297        1.4777503354        5.1385192193
 H          3.0436493645        1.2047412522        5.0052347318
 O          3.3930358845       -0.8414333543       -2.7376885403
 H          3.4696088919       -1.1931968021       -1.8325090341
 H          3.1418839980       -1.5955568684       -3.3000337689
 O         -2.5259106545       -1.3799402954       -4.5474618790
 H         -2.0010790776       -2.1927567557       -4.5377601120
 H         -2.0861052070       -0.7664267693       -5.1751291625
 O          2.3656870952       -4.3459288780       -2.1626380242
 H          3.3012902746       -4.0822201635       -2.2532368689
 H          1.8325378510       -3.5240866182       -2.1220121252
 O         -4.9931488391        1.3214749248        1.3899373777
 H         -5.5700565321        1.4438502189        2.1826106631
 H         -5.0989943076        0.3897520197        1.1187094680
 O         -3.5146334610        1.6052627385       -3.9341460553
 H         -4.2104399277        2.1695378244       -3.5742345857
 H         -3.1599897920        2.0652298762       -4.7219761215
 O         -0.3539928685       -3.4625798662        0.8823016108
 H         -0.5116142975       -4.2429118368        0.3317050457
 H         -0.1802282456       -3.7338563887        1.7978160574
 O          2.6661117342        4.5666391246        3.0885542887
 H          2.6539958170        3.8177339666        2.4758351475
 H          1.9304128891        4.3791541197        3.7027047156
 O         -4.9956749195       -1.3120506545        0.6219994920
 H         -4.0972338114       -1.5845179147        0.3655055115
 H         -5.6069553917       -1.6079664044       -0.0698189087
 O          1.0630586370       -1.8693629800        4.5869364593
 H          0.2728630474       -1.4584730264        4.9794530358
 H          1.8071254848       -1.6378675631        5.1777068039
 O          0.6169992188       -1.4719815593       -5.3264099599
 H          0.5312736503       -0.8113795045       -4.6087999545
 H          0.9059219781       -1.0337518385       -6.1479103538
 O          1.6573897752        6.4645013720       -1.7581267585
 H          1.5874505170        6.2129352754       -0.8111206194
 H          0.8515281337        6.9923372144       -1.9066242605
 O         -1.0315260812       -0.6734875899        5.8310004934
 H         -1.9451599063       -0.8736321486        6.1180264638
 H         -1.1160731425        0.2010042487        5.3886617905
 O         -2.1478957756        3.0294624488       -5.7954281233
 H         -1.8539943707        3.6668956147       -5.1039241144
 H         -2.7906898994        3.4840840072       -6.3390833754
 O          0.2489139800        1.9239734650       -4.9325123306
 H          0.2833159511        2.7709631280       -5.4028486680
 H          1.1623639634        1.5798595570       -4.8459167928
 O         -1.6826836730       -3.2851085944       -2.0991352902
 H         -2.0601166779       -3.9640754478       -1.4987872995
 H         -1.5072015105       -3.6965389535       -2.9567548015
 O         -1.4629588656       -5.8464167835        3.1594255715
 H         -1.1309687266       -6.4225953149        2.4341427611
 H         -0.7117266801       -5.2454662492        3.3552635602
 O          2.7145298321        1.0036618050       -4.6489631354
 H          3.1329670200        0.4791467949       -5.3538940557
 H          2.8246827008        0.5026077818       -3.8245285743
 O         -2.9123035203       -4.8333121952       -0.3382630813
 H         -3.8375607585       -4.6623363517       -0.6339914814
 H         -2.8420507888       -4.3370207673        0.5096826399
 O          6.3414022041       -1.3486524639       -1.4262643111
 H          6.3096720467       -1.0640758774       -2.3582429068
 H          7.2062038367       -1.0356516503       -1.0908310533
 O         -1.4209169999        0.3351270999       -6.3058918024
 H         -0.9262998702        0.9588130367       -5.7321479963
 H         -2.2870531457        0.7486243453       -6.4846416300
 O          5.7413572944       -0.6927607772       -3.9730160182
 H          5.8636145300        0.1917661029       -4.3631435835
 H          4.8611439453       -0.6617139094       -3.5244332388
 O          4.9304324069       -3.5578259875       -2.0373902267
 H          5.2827873576       -3.6534351827       -2.9469866793
 H          5.3602147387       -2.7568044153       -1.6897233804
 O          1.7105233142       -0.6556122681       -7.6422334584
 H          2.6351431193       -0.5399402176       -7.3740823190
 H          1.4063834220        0.1934461577       -7.9809352054
 O         -3.0224186649       -3.9862618543        2.1187747932
 H         -3.9556127844       -4.2481957092        2.2478046194
 H         -2.4837677642       -4.6982510804        2.5301384146
 O          4.0229751537        0.2067501096        2.7070591341
 H          4.5511146260        0.1775255337        1.8885660799
 H          4.5291966460       -0.2855643586        3.3733753519
 O          5.5560646356       -1.3314705770        4.3677186774
 H          5.5339567495       -1.1406238532        5.3054363822
 H          5.7172319474       -2.2916730629        4.2656762154
 O         -0.1336840332       -5.4987266457       -0.8992465497
 H         -0.9001433715       -5.5874569656       -1.5033207577
 H          0.5561438845       -6.0395917104       -1.3174484746
 O          1.0646517176       -5.5058659480       -4.1365821366
 H          1.6256991859       -5.1525763277       -3.4061364852
 H          0.3861597404       -4.8085477765       -4.2798366059
 O         -4.2862740937        4.9758862862       -3.7465149457
 H         -5.0325695212        4.4564359410       -3.4067321509
 H         -4.2070799915        4.7029442399       -4.6685269477
 O         -0.8542927164        7.4490668029       -1.8333712754
 H         -0.9949121718        6.5876167679       -1.3464148693
 H         -0.7768731731        8.1014057658       -1.1271979741
 O         -1.2155772477        5.3028291282       -0.3839812895
 H         -1.6311161953        5.6626677086        0.4171794283
 H         -1.9009877084        4.7443508632       -0.8219266398
 O         -3.0320150448        3.3300126256        1.4503468430
 H         -3.6644823832        2.5971314649        1.5034427277
 H         -3.4355441217        4.0230591339        0.8940829812
 O         -4.2015624259       -2.3191837040       -2.4127112303
 H         -3.2665279700       -2.5099247075       -2.2173095626
 H         -4.3509264657       -2.6709025834       -3.3008141762
 O          2.8796719826       -2.6057683321       -4.6337094780
 H          1.9785164649       -2.3264551641       -4.9181756287
 H          3.0201059671       -3.5221249044       -4.9647991205
 O         -1.2166707785        5.1355552445        5.6223722009
 H         -1.9090085563        4.9032695517        4.9575800864
 H         -1.0923181403        6.0814861331        5.5499799636
 O         -1.3222204585       -3.6821016488        5.4258252801
 H         -0.6795999827       -3.3009720797        6.0449286352
 H         -1.0652654417       -4.6215583512        5.3966029762
 O         -5.9240182252        0.3780736503       -2.2515307264
 H         -5.6176234725        0.0359041255       -3.1261158766
 H         -5.1051137417        0.6261918626       -1.7662501563
 O         -5.8215838282        3.0152857749       -2.7719377557
 H         -5.8951161961        3.2271876658       -1.8207293225
 H         -6.1568742682        2.1071366836       -2.8285270163
 O         -4.3272655245        5.2914770349        0.1376538451
 H         -5.1087537860        4.7933690603       -0.1307669586
 H         -4.1012795549        5.9095852327       -0.5910994298
 O         -5.0101192674       -2.1637773700        3.1430251208
 H         -5.1402917295       -2.1048391821        2.1760516830
 H         -4.4512875192       -1.3722273191        3.3357017087
 O          7.1308505810       -0.6826834011        2.1826159993
 H          6.6167537654       -1.3417261657        1.6778275035
 H          6.8227230844       -0.7882570195        3.0960039746
 O          7.0068562995        1.9584262735        1.9251998899
 H          7.8348374300        2.2778540143        1.5689061639
 H          7.0528961403        0.9760356418        1.9851250118
 O         -3.1084486606        4.5745744018        3.8353745680
 H         -2.9395271500        4.0939117194        2.9967611363
 H         -3.7328886288        5.2835639720        3.5590712531
 O         -4.1718331076        2.3213832198        4.8232981991
 H         -4.2081968974        2.2345404295        5.8033602991
 H         -3.9468267074        3.2469007773        4.6081824756
 O         -6.1873481944        3.2067334644       -0.0826535616
 H         -5.6268653666        2.5382976560        0.3751532959
 H         -7.0325644683        2.7218980855       -0.1956115617
 O         -7.9288808449        1.2529778766       -0.4503824645
 H         -7.3692723721        0.8946487489       -1.1513107884
 H         -7.9213145409        0.6029364527        0.2702106320
 O         -3.6642763158       -0.8137214427        6.2707189916
 H         -3.8073376059       -0.3887748054        5.4080268121
 H         -3.9662868874       -1.7349308072        6.1741165906
 O          3.2301021982       -7.1286746208       -1.0787988050
 H          2.5159690362       -7.4918934418       -1.6194002194
 H          2.8401296111       -7.0451406958       -0.1867886529
 O          1.4539923587        6.1109151385        0.8240027321
 H          2.3286489451        6.3856381412        1.1749257688
 H          0.9954209862        5.6556651977        1.5650051913
 O          1.0328626983        1.5769276003        7.4647424657
 H          0.9331748791        0.7633638295        7.9712080099
 H          1.1474652357        1.2934112741        6.5368874428
 O         -4.3071870883       -3.6386766644       -4.9711449796
 H         -4.4139107105       -4.4226452107       -4.3622231198
 H         -5.1599014899       -3.5241592554       -5.3956406512
 O          5.2331957828       -5.3612747765       -0.0768338520
 H          4.7311041343       -6.1243715731       -0.3871962014
 H          5.1299263495       -4.7056702160       -0.7988238130
 O          2.1858019366       -6.6008266835        1.3824610851
 H          2.1211317288       -5.6499032395        1.1269736436
 H          2.9936401468       -6.6417809495        1.9149507997
 O          5.8797886338        2.2525201222        4.4484394171
 H          6.3365194714        2.2318707416        3.5970240005
 H          5.5782674634        3.1687825755        4.5989383202
 O          4.6126474438        4.6139884720        4.8734948300
 H          4.2078743161        4.4589865087        5.7324993017
 H          3.8732411287        4.5877151295        4.2158276125
 O          1.8994139555        7.2089430335        3.7849820112
 H          2.4021114194        6.7535178612        4.4617109842
 H          1.2167156354        6.5752872117        3.4983252901
 O          0.9150414743       -3.7236485263        6.9570003046
 H          0.6875441103       -4.6520512033        7.0469311788
 H          1.7470188401       -3.6952585281        6.4518939211
 O          5.5400107407        5.2084337208        2.3737824226
 H          5.6263660727        5.2344265636        3.3322261842
 H          5.0150178205        4.4046504660        2.1777081247
 O          2.7701573755        3.8102260786       -4.6879386475
 H          2.9271561894        2.8488364868       -4.7406619478
 H          3.5507956206        4.2269169653       -4.2842740983
 O          6.4187945596        4.7539376861       -0.1804882477
 H          5.8272325904        5.3896775478       -0.5971536653
 H          6.3767122878        4.9500925427        0.7658041582
 O          6.5545107236        2.2272271082       -1.0298278288
 H          6.5516935635        3.1416878833       -0.6798251430
 H          5.7869045492        2.1767096853       -1.6427724639
 O         -5.2073056526       -0.6639019751       -4.5542977633
 H         -5.7711459249       -1.4482061824       -4.5032941556
 H         -4.2869095851       -0.9531080866       -4.4167859059
 O          3.9969099106       -0.8167118019       -6.2295481925
 H          4.9377372639       -0.7072286594       -6.0793836356
 H          3.6823869463       -1.5376530148       -5.6301046156
 O          4.7709463307        4.8661821133       -3.2280821018
 H          5.6927277802        4.5581541371       -3.3940365829
 H          4.8143230646        5.5986700892       -2.6088023677
 O         -0.1415578060        8.2071815378        0.7733781035
 H          0.4434093418        7.4052428482        0.7385963596
 H          0.2416500561        8.7471180442        1.4629364625
 O          0.9974508839        3.7569594421        5.0062256204
 H          0.2070989131        4.2842565351        5.2308598767
 H          1.6347003450        3.7917420099        5.7500617135
 O          3.3496298475       -3.6620536534        5.5532806192
 H          3.4827475376       -2.8281227768        6.0289122367
 H          3.4996063729       -3.4378930389        4.6114962945
 O          8.2975429989        0.0830184111       -0.3578137126
 H          7.8284803873        0.9071876595       -0.5609264764
 H          8.1514205999       -0.1237678372        0.5720696100
 O          2.9678389074       -1.1736479389        6.4054841066
 H          2.2685877498       -1.0630449642        7.0779781382
 H          3.3475977480       -0.2902796069        6.2349498067
 O         -4.8021260428        6.2013544700        2.6275911281
 H         -4.6421424363        5.9732465679        1.6888759649
 H         -5.6013037192        5.6818259534        2.8281288446
 O         -3.8643167658        1.7513058948        7.3675143141
 H         -3.7965710892        0.7911927048        7.2716019722
 H         -2.9672316465        2.0868294134        7.5110995271
 O         -1.3057207906        2.8222244591        7.1693031251
 H         -0.4225836398        2.4721824369        7.4158126874
 H         -1.2262285054        3.7616864110        6.9636394168
 O          0.6816271079       -1.1124169971        7.8474068156
 H          0.0024673805       -0.9317238068        7.1612895335
 H          0.7008978435       -2.0732524038        7.9347070122
 O          4.4821877920       -5.7094633614        2.5537594530
 H          4.0102113049       -4.8493960560        2.6342517650
 H          4.8859289414       -5.6777748228        1.6691959556
 O         -4.6186405392       -5.5690954201       -3.2664681127
 H         -3.7014115757       -5.8191973271       -3.0293751430
 H         -5.0272089032       -5.2596558719       -2.4431336685
 O         -6.4005429729        1.6810058154        3.5597356191
 H         -5.6190418476        1.8866070569        4.1196631248
 H         -6.7309803478        0.8112142297        3.8452641905
 O         -6.6591296102        4.2522788345        2.5137056174
 H         -6.7451504905        3.4205959044        2.9974910009
 H         -6.6232037159        4.0090558963        1.5773768917
 O         -0.4486514548       -7.1651632811        1.1128689192
 H         -0.4194289522       -6.4921082621        0.3881005250
 H          0.4843633614       -7.2700137025        1.3562352441
 O         -5.3649745615       -4.2113003498       -1.0377018932
 H         -5.0917947668       -3.3813692410       -1.5026423587
 H         -5.9587582592       -3.9377207320       -0.3188057875
 O         -2.0412518852       -6.1199778878       -2.6910387436
 H         -1.7490997002       -6.3682758021       -3.5984542854
 H         -2.1015305972       -6.9574392130       -2.1885516225
 O         -7.0557293373       -0.8794840518        4.1729739836
 H         -7.0513846461       -1.0377990363        5.1155849135
 H         -6.3447289901       -1.4556981190        3.7946085973
 O         -5.2706757750       -5.4081977651        2.3136871104
 H         -4.9611899538       -6.1066044218        1.7096195664
 H         -4.9937984152       -5.7020165605        3.2102115319
 O         -7.7585540818       -0.8324137871        1.3920948824
 H         -7.3215111646       -1.6950511154        1.3520486437
 H         -7.8161741758       -0.6167288874        2.3278259703
 O         -4.0270169739       -3.3716155600        5.4003316124
 H         -3.0538418540       -3.4286801869        5.3887601843
 H         -4.3268440631       -3.0795039146        4.5209250596
 O          3.2562658941       -5.0310534150       -5.5717595954
 H          3.8773365572       -5.4406854464       -4.9445729476
 H          2.3905836080       -5.3653775252       -5.2612687610
 O         -3.6421126482       -7.0944723858        0.8534007362
 H         -3.0108309603       -7.2958680472        1.5472936470
 H         -3.2896730094       -6.3132383916        0.3643231245
 O          2.9186841918        3.4665199067        6.8330068560
 H          2.3833809227        3.1205931411        7.5548760447
 H          3.3401261036        2.6596959157        6.4534788011
 O          2.4027904534       -5.9300285761        4.5118115470
 H          2.8070642914       -5.2433224415        5.0706151482
 H          3.1335073822       -6.3133734632        4.0175236245
 O          5.8680889916       -3.3823648734       -4.5169102660
 H          5.9299995484       -2.4127460104       -4.4627743212
 H          5.2615613859       -3.6027993049       -5.2262278697
 O         -2.1169800464        6.6929958790        1.7903871713
 H         -1.6385985550        7.4657712610        1.4392217048
 H         -2.9931744206        6.9551602342        2.0862343307
 O         -6.9486021695       -1.8171934799       -1.2728188618
 H         -7.7464560644       -1.5687625777       -0.8023386163
 H         -6.5709206086       -0.9874307121       -1.6578511389
 O         -3.9519616111       -5.9758727200        4.5383384373
 H         -3.0366991734       -5.9968907877        4.2292783691
 H         -4.0591586867       -5.1578703831        5.0559853246
 O         -6.7039064739       -2.9507944225       -3.7529840538
 H         -6.6893461551       -3.9013638003       -3.6286558991
 H         -6.8767316264       -2.5800657021       -2.8678607421
 O         -2.3040553500       -4.5740162421       -6.4879306055
 H         -3.1307632223       -4.2768348516       -6.0530996081
 H         -2.0695528816       -3.8952083832       -7.1379087334
 O         -4.1093746807        0.8304102998       -6.6308838394
 H         -4.4749901057        0.5460378879       -5.7761078358
 H         -4.1707119772        0.0227558521       -7.1717693977
 O         -6.8281136287       -3.5406681677        1.1898604125
 H         -6.2986182762       -4.1545716085        1.7372479950
 H         -7.7070994698       -3.9132539086        1.1448169503
 O         -1.9327734148       -8.2216455341       -1.0357654656
 H         -2.7793244163       -8.1230624734       -0.5754406226
 H         -1.2673756516       -8.1351772659       -0.3369519443
 O         -3.6580446060        6.8902432051       -1.8912952078
 H         -3.9015293727        6.3808810470       -2.6789570453
 H         -2.7533059897        7.1992659889       -2.0313399330
 O          0.6829574096        4.3257227937       -6.2800210354
 H          1.5459838204        4.2837667306       -5.8293155950
 H          0.2894927522        5.1646857667       -6.0281617588
 O          1.3055649518       -3.4319903555       -7.1499441401
 H          1.6879535028       -2.6278918418       -7.5205761104
 H          2.0216963437       -4.0590081294       -7.0214736662
 O         -1.2230701190       -2.2516128842       -7.4945915088
 H         -0.3518749793       -2.6699054126       -7.4999228815
 H         -1.0888777693       -1.3555623220       -7.1520604447
 O          4.4718259775       -6.0429765460       -3.3666018740
 H          5.3860124273       -5.9138713204       -3.1153812228
 H          4.0113283340       -6.4016759594       -2.5933037150
 O         -4.9298827943        3.3561577334       -5.9303713721
 H         -4.6965009085        2.5121847463       -6.3541567002
 H         -5.7625069936        3.2048715251       -5.4800989424
 O          0.8313524826       -7.5507993423       -2.3701380835
 H          0.8546282227       -7.0057813617       -3.1779071682
 H          0.0587329066       -8.1169641925       -2.4220154017
 O         -0.1116158015       -6.1218425866        5.6260767419
 H          0.7790010177       -6.1878275062        5.2438892497
 H         -0.6454076096       -6.7901427089        5.1927262519
 O          0.6102378898        1.9199285965       -7.7688073926
 H         -0.1856234737        1.4575266279       -7.4678438141
 H          0.4695863542        2.8478171262       -7.5379623770
 O         -1.2364512089       -6.7385079123       -5.1272393063
 H         -1.6870817431       -6.1493208738       -5.7498364288
 H         -0.2978200802       -6.5330762204       -5.1841894831
 O          0.2155955710        6.8421262182       -4.4436854576
 H          1.1118397631        6.7097838306       -4.1225220634
 H         -0.2424514262        7.3378939239       -3.7521051809
 O          5.4706140540        1.7712822834       -5.0052024891
 H          4.9568644709        1.9406389258       -4.1803718886
 H          4.8531044409        1.8716784944       -5.7410840328
 O          6.2702249172       -3.8821469285        3.7996283060
 H          6.9023272805       -3.7661433935        3.0884251850
 H          5.7268211906       -4.6522133110        3.5673651691
 O          3.3449579182        2.2075608392       -6.9865050345
 H          2.4246392710        2.0283135885       -7.2343401484
 H          3.5255582016        3.1002126634       -7.2783972261
 O          4.2538313881        6.4825204580       -0.9334915568
 H          4.2004301836        6.8919177855       -0.0558441293
 H          3.4225410940        6.7139133232       -1.3795614068
 O          3.7319931711        7.0888608162        1.7321646864
 H          3.2170232738        7.3218316428        2.5264340709
 H          4.4013318459        6.4348058875        2.0262011028
 O          7.0375821932        3.5613929858       -3.5854083796
 H          7.2425158220        3.0750045298       -2.7775108702
 H          6.7217746631        2.9100271078       -4.2310830407
 O         -3.9287057217       -1.7830604836       -7.2523863886
 H         -3.0518358667       -1.9248325621       -7.6294153732
 H         -3.8575242945       -2.0410872883       -6.3251389160
