  281

 H          0.4630927078        1.1941025342        0.8323452954
 C          0.5529035756        0.5095402433       -0.0251092077
 H          0.4633421180        1.0989800589       -0.9466436092
 C         -0.5779259329       -0.5149488596        0.0205351855
 H         -0.4518492544       -1.1270258232        0.9278134321
 H         -0.4840892688       -1.1748678653       -0.8448928475
 N         -1.8603253888        0.1647702466       -0.0623309404
 H         -2.6131021662       -0.5138473281       -0.0751527664
 H         -1.9956541837        0.7570092235        0.7508171899
 O          1.7808081029       -0.1833448058        0.0209869118
 H          2.5006908396        0.4507195090       -0.0567171278
 O          1.3832491798       -2.2665868808       -4.0112319601
 H          0.9819363213       -3.1551757806       -3.9099604345
 H          1.9325925595       -2.1508115968       -3.2089829292
 O          2.9094065050       -2.7368737375       -1.8301438879
 H          3.2910943137       -2.3017714981       -1.0385210587
 H          3.6335753728       -3.1845658969       -2.3055739763
 O         -1.7878269801        1.7465738545       -2.1342023219
 H         -2.5599874272        1.7327013956       -2.7319540138
 H         -1.9026249670        1.0808413482       -1.3870448195
 O         -3.7162129736       -0.7071645193       -2.3881202247
 H         -2.7606155736       -0.5957017540       -2.4275123640
 H         -3.9982644693       -0.6223020129       -1.4624966660
 O          1.6103238984        4.2294447861       -1.0987094540
 H          2.1171049971        3.4225327372       -0.8638270001
 H          1.5103179045        4.2074269965       -2.0772477795
 O          3.6997918480       -1.9632195864        0.5903073769
 H          4.3665680937       -2.5271622252        1.0594208534
 H          2.8312731121       -2.1797373061        0.9499311754
 O         -1.9823297112       -3.5267240214       -1.9592769737
 H         -2.2588112850       -3.1442503005       -1.0930683022
 H         -2.7970109798       -3.5522921068       -2.5035552701
 O          1.6990130090       -4.7314744794       -0.5976049463
 H          2.3885343687       -5.0527315582        0.0168982337
 H          2.1265375452       -3.9980488935       -1.1047346817
 O         -0.9375940784       -1.2124613005       -3.0100067122
 H         -0.0851222096       -1.4228792990       -3.4289981448
 H         -1.3357571805       -2.0746395504       -2.8057361512
 O          0.2775757779       -4.5668318935       -3.2032865215
 H          0.8067798792       -4.8825787988       -2.4619930829
 H         -0.5517641224       -4.2440865514       -2.8183429740
 O         -3.4474981650        2.5087930927        0.3517513656
 H         -3.8163250547        3.3399716212        0.7034783648
 H         -2.6085135089        2.7476729357       -0.0492906082
 O          2.9973872573        2.2570526760        0.1753918438
 H          3.3254679451        2.8616136346        0.8729814694
 H          3.7790008033        1.9654064848       -0.3075851124
 O         -1.5625421823        3.9564225874        2.0409463366
 H         -0.8607803468        4.4336357070        2.4958690288
 H         -1.2897709434        3.9232421834        1.1054103216
 O          1.6736473691       -0.4242103867        2.7102652766
 H          1.3196592431        0.4771420123        2.8477811549
 H          1.7364630473       -0.5319607291        1.7436201945
 O          0.9251470924        2.1710730790        2.9530034225
 H          1.8264069519        2.2942075185        3.3121304413
 H          0.3037823137        2.5313889612        3.6206392747
 O         -1.9110573571        1.2563134297        2.6781967745
 H         -1.7006573498        2.1949015888        2.5284075755
 H         -2.8934639170        1.2267512934        2.6531128304
 O         -6.9655429165       -0.7054947642       -1.1020736269
 H         -6.8665309028       -1.1242568709       -1.9803611735
 H         -7.5335491310        0.0775808372       -1.2438365028
 O         -4.5306228992        0.9057198404        2.3750360117
 H         -4.9210788924        0.3984217695        3.1216775927
 H         -4.9461349437        1.7860839878        2.3922458704
 O          1.1183540232        4.5872869463        1.6896269604
 H          1.2400914805        4.6304469774        0.7328576212
 H          1.0170578502        3.6440722694        1.9215632774
 O          0.2704236633        1.3254472176       -3.6933612062
 H         -0.5190278162        1.4058835506       -3.1038854147
 H         -0.0618878745        1.0222927108       -4.5460511126
 O         -2.9148446282       -2.8557179927        0.4216270011
 H         -2.6770133600       -2.3312644216        1.2138403569
 H         -3.0513944539       -3.7573526190        0.7568978576
 O         -2.2678671622       -1.5449484690        2.6858222793
 H         -1.4545686757       -1.9255247819        3.0612704801
 H         -2.1093401635       -0.5958299914        2.5833106804
 O          5.6257495489        3.5019343756       -1.5841713769
 H          4.7639053769        3.1820981426       -1.9532338017
 H          6.2839468808        3.1137263809       -2.1703533799
 O         -5.2510727032        1.6360588302       -1.3112454571
 H         -4.4859534208        1.8055553451       -0.7170929124
 H         -5.3050038349        2.4416195931       -1.8665519235
 O         -4.6826049627       -0.7144486795        0.2459843005
 H         -4.5794629016        0.0130644816        0.8924661873
 H         -5.5356656661       -0.5659840690       -0.2115047882
 O          0.0381201589       -2.0147888763        4.0031604877
 H          0.7008547622       -1.4977698499        3.4798709057
 H          0.5057378293       -2.7340903328        4.4293221680
 O         -6.9992358977        2.1900127747        0.6001880877
 H         -7.1845751064        1.3537514451        1.0689145841
 H         -6.3255486181        1.9704731471       -0.0893125412
 O          3.4299968239       -1.3294771275        4.5344728117
 H          3.0480080315       -0.8248697762        5.2726850126
 H          3.0024694688       -0.9209513685        3.7553125789
 O          4.4085031118        0.2781783986        1.9111941443
 H          4.1042796376       -0.4142510319        1.2928847360
 H          4.8523724240        0.9628730089        1.3807794281
 O          2.3373453346        0.0012742125       -2.6931613600
 H          2.1066812678       -0.3287081629       -1.8131322360
 H          1.5460727856        0.4316150825       -3.0835424340
 O          1.0596134671       -2.9345063041        1.3760784896
 H          0.1974646183       -3.2188139496        1.7498135346
 H          1.2156159614       -3.5462245395        0.6352696077
 O          4.7342366997        0.4124598038       -1.1074673749
 H          5.2445985925        0.8863028410       -1.7702220424
 H          5.0595407459       -0.4913870271       -1.0988032758
 O          3.7492867158        4.1682995269        1.9720643384
 H          4.1175896163        4.7227551397        1.2525223737
 H          2.8485581126        4.5270286928        2.0955351241
 O         -4.2964193375       -3.1049782483       -3.3086999089
 H         -4.1474055786       -2.1548052444       -3.0705101569
 H         -4.7427168391       -3.4911378231       -2.5251678005
 O          7.2149510063        0.0712683271        0.2886013851
 H          6.6407118515        0.8656860509        0.3503326994
 H          7.7664616285        0.0924523013        1.0993152571
 O         -0.7817522069        0.3775985154        5.0173574154
 H         -0.4890554842       -0.5236127448        4.7946972659
 H         -1.1253440545        0.7573184722        4.1806367825
 O          4.5847263785       -4.1211233735       -3.4425129051
 H          4.3596175823       -5.0409305356       -3.5700445220
 H          4.3145840305       -3.6349935389       -4.2705137923
 O          5.9948643416       -2.0175845998       -2.4645481835
 H          5.7841333067       -2.8978708376       -2.7985816234
 H          5.4907392612       -1.4077635166       -3.0542228746
 O          3.5083123535        2.0993211360        3.6842392959
 H          3.7771433741        2.9089670866        3.2145061174
 H          3.7263751038        1.3684627522        3.0680946345
 O         -1.0019064167        3.7811246049       -0.6623624723
 H         -0.0703649153        4.0427839783       -0.8231196101
 H         -1.1913578001        3.0839616812       -1.3290789376
 O         -3.2599405063        5.1564327281       -1.3252935778
 H         -2.3905149990        4.7809418920       -1.0835806349
 H         -3.6780537689        5.3816662354       -0.4851883737
 O         -3.4600608986        1.9194790904       -4.2332263739
 H         -2.8538588646        1.3484005701       -4.7439841805
 H         -4.2951900423        1.4055547107       -4.1925430087
 O          4.1066774764        5.4599785311       -0.3347376890
 H          4.7555400784        4.9756915658       -0.8622424221
 H          3.2397243178        5.2449772717       -0.7115182090
 O         -7.7313534324       -0.1451444830        1.7925898727
 H         -7.1541674480       -0.8920563126        1.9903425838
 H         -8.4300727147       -0.4589095951        1.1923080979
 O         -5.1175413257       -3.8326975579       -0.9014409255
 H         -6.0201097907       -3.6588692258       -0.5494478246
 H         -4.5451692202       -3.1839332138       -0.4548991390
 O         -5.1050672256        3.8284152530       -2.8187459548
 H         -4.5920550216        3.4757425186       -3.5557417571
 H         -4.4978886393        4.3913580752       -2.2981935987
 O          3.7203781173       -2.5890773777       -5.3826379690
 H          2.7999493561       -2.5210012621       -5.0646528866
 H          4.1452401280       -1.7576384743       -5.1101174259
 O          3.5270707262       -5.1334580193        1.3718003738
 H          4.4442399392       -4.8466216129        1.3030752065
 H          3.2281214028       -4.7279634697        2.2061822470
 O          5.6047509126       -3.2739750764        1.8330132960
 H          6.3283064719       -3.1586289112        1.1814218515
 H          5.8150302820       -2.6606818151        2.5621576259
 O          5.9403774765       -1.1293430915        3.5517390844
 H          5.4902206991       -0.5644718155        2.8786936114
 H          5.2189584742       -1.3435300041        4.1676665895
 O          5.8112903799        2.2656324443        0.7804164051
 H          5.8454390968        2.8537191024       -0.0007663320
 H          6.4421845164        2.5850806969        1.4516615298
 O          4.6052653139       -0.3870707898       -4.0498906443
 H          3.7601933063       -0.2209284880       -3.5819529693
 H          5.1036167905        0.4465104733       -4.0180737109
 O         -1.7559698130        0.0688517328       -5.2401133681
 H         -1.5667953989       -0.4486492223       -4.4285026398
 H         -2.0023457061       -0.5928379902       -5.8875182739
 O          6.4375743847        1.5771205679       -3.4444030720
 H          7.1190029482        0.9748661526       -3.0392303510
 H          6.8232086422        1.9410595655       -4.2400923542
 O          7.9994707633       -0.1377336673       -2.2438548085
 H          7.5199322702       -0.9566233191       -2.4434598295
 H          7.7939856287        0.0437069899       -1.2961534793
 O          2.5364122417       -3.6574660531        3.4841333549
 H          2.9734849115       -2.9372713926        3.9746831857
 H          2.0236771268       -3.2357191512        2.7592555698
 O         -5.6727781297       -2.2573612957        2.2505836361
 H         -5.1484573131       -1.7701952023        1.5774194437
 H         -5.0581863204       -2.9327543721        2.6119059500
 O         -4.0316446233        4.9262946803        1.4226430366
 H         -3.1840506034        4.7642409473        1.8779371864
 H         -4.7330933256        4.7012955936        2.0441397574
 O         -6.8399911453       -1.8271304284       -3.5474902514
 H         -6.1127379313       -2.4412982658       -3.7150276249
 H         -6.5241784114       -0.9583508370       -3.8843456026
 O         -7.3479883572       -3.0149038030        0.2428643438
 H         -6.9158891146       -2.9277688784        1.1113205892
 H         -7.3159426440       -2.1197453087       -0.1565970366
 O         -5.7892275609        0.6010034118       -3.8359816054
 H         -5.5282924518        0.6293380316       -2.8973903499
 H         -6.4946561477        1.2841098220       -3.9219783149
 O         -3.8852611474       -4.0906211875        3.0614035962
 H         -2.9336854009       -3.9098394993        3.0367766426
 H         -4.0121193310       -4.8505479225        2.4798018464
 O          1.9886859895        0.6139088761        5.7508035703
 H          1.0404130770        0.6567808356        5.5561028621
 H          2.4201879496        1.3198473058        5.2574417842
 O          0.8725595467        3.9455029628       -3.6712500717
 H          0.7344202482        2.9763003137       -3.6606891096
 H         -0.0180461400        4.3099588204       -3.7926834811
 O         -1.8596657298        4.3368049870       -3.8402263703
 H         -2.3645872348        4.8274463894       -3.1854040605
 H         -2.3642335376        3.5441762839       -4.0615298642
 O          7.3196971788       -2.5557551154       -0.0671967280
 H          7.2353101685       -1.5965732973        0.1210274159
 H          6.9309509711       -2.6575045327       -0.9431873689
 O         -5.5677603263       -0.5024467496        4.3749714764
 H         -4.7628138658       -0.7202442616        4.8926333913
 H         -5.7375384788       -1.2793642144        3.8144811546
 O          3.4088974432        2.5257676778       -2.5954176803
 H          3.1339547546        1.6025713666       -2.4658113554
 H          3.3336787474        2.6757714811       -3.5589220924
 O         -1.1446257299       -4.2133821841        2.2387524496
 H         -1.2270188785       -4.7181927311        1.4076475008
 H         -0.6095779991       -4.7874156968        2.8195387419
 O         -2.0835234619       -2.8335491366       -5.0832112070
 H         -2.9516814500       -3.0042694298       -4.6967282551
 H         -1.6205598273       -3.6707449117       -5.1219215371
 O         -5.8591393293        3.2591014047        2.7623883209
 H         -6.4705805884        2.8165460669        3.3932387099
 H         -6.3053019532        3.1251848772        1.8981394674
 O         -8.6742188566        1.4106079312       -1.3286134772
 H         -9.3554854229        0.8542962910       -0.9278065673
 H         -8.2550132827        1.9100478437       -0.5979636557
 O          8.4437403107       -0.1712846147        2.6484544484
 H          9.0817893618       -0.8259963153        2.2754694645
 H          7.7730998700       -0.6647819156        3.1378907789
 O          7.7350003877        2.4661375428        2.6750384248
 H          8.1762392787        1.5997604987        2.7205948438
 H          7.1587340534        2.4474130845        3.4645838349
 O          9.8425222431       -1.8064744210        1.1334129014
 H         10.1458175440       -1.1056772221        0.5204859219
 H          9.1620372491       -2.3024544400        0.6607997402
 O         -3.1623770549       -1.0747642920        5.2893206829
 H         -2.9446626622       -1.4876185442        4.4366273802
 H         -2.4295821158       -0.4690576279        5.4782521613
 O         10.2632471595        0.2818357811       -0.5727299369
 H          9.8167135958        0.0554321440       -1.3967280317
 H          9.8139609341        1.0836717755       -0.2566132594
 O         -0.9777717956       -5.4525456125       -0.2125073127
 H         -1.3424808710       -4.8644442219       -0.8934630363
 H         -0.0160351356       -5.3943784257       -0.3074235730
 O         -7.5608260806        2.5482927474       -3.6144514278
 H         -8.0835709974        2.2320155323       -2.8619428299
 H         -6.9828409907        3.2479269993       -3.2864495943
 O          8.7955931137        2.5867840581        0.0794040618
 H          8.5168628667        2.6455936249        1.0055840511
 H          9.2107807602        3.4208329881       -0.1353360111
 O         -7.3974824437        1.5154807689        4.0681092355
 H         -6.8110842785        0.8409193685        4.4446621128
 H         -7.8189166416        1.0686387818        3.3210924822
 O         -3.5611646024        2.9161635543        4.4360016898
 H         -3.9162671104        2.2847899141        5.0637455630
 H         -4.3015544684        3.2010473672        3.8844789566
 O         -9.7375557555       -0.7973379434       -0.0274788022
 H        -10.5790069341       -1.0913254087        0.3194654080
 H         -9.5133695901       -1.4167456408       -0.7633494464
 O         -0.7745307315        3.1825290613        4.7943832917
 H         -1.7139560259        3.2538166809        4.5626917440
 H         -0.7326106205        2.5223703959        5.4918806275
 O          0.8002164143       -5.6979441201        3.3176511791
 H          1.2172324443       -6.1622600944        2.5891247167
 H          1.4603484437       -5.0535950460        3.6263858135
 O         -3.6886277269       -5.5362901876        0.7041055686
 H         -2.9447292184       -5.9805377438        0.2881305588
 H         -4.2955903977       -5.2378455915        0.0047973602
 O         -9.1180846464       -2.5779492119       -1.9453106994
 H         -8.5018147079       -2.3305175871       -2.6500222537
 H         -8.6480848737       -3.1992886292       -1.3779538520
 O          2.8868982855        2.5821705609       -5.2135148925
 H          2.4430226516        1.7330506289       -5.3740840519
 H          2.1901505568        3.2387141082       -5.0922097242
 O          1.8034853846        0.0161466063       -5.6976573147
 H          2.4107493491       -0.3663687498       -6.3313290223
 H          1.5735515256       -0.6897175577       -5.0779649778
 O          6.0859700192        1.6279752005        4.6414839404
 H          6.1771506738        0.6786486908        4.4898844847
 H          5.1465838805        1.8363061129        4.5224359817
