  106

 H          0.0000000000       -0.0000000000        0.0000000000
 O         -0.9834666328       -0.1994404021        0.2630909474
 H         -1.1216900482       -0.2549046089        1.2779103239
 H         -1.6689647782        0.5129488574       -0.0592275688
 O         -1.7083304486       -0.2066572615        2.6835228999
 H         -1.1083201068       -0.6174829521        3.3641292455
 H         -1.7679519487        0.7379080321        2.9332323917
 O         -2.8226494847        1.3815599391       -0.3611054280
 H         -3.5210269172        0.7616798662       -0.6410628920
 H         -3.1821920298        1.8540193100        0.4194348240
 O          0.9627210965       -2.3053366378        0.7911427252
 H          0.2368594822       -2.3185229265        0.1376190812
 H          1.6784428474       -2.8443729683        0.4150523647
 O          1.5669601785       -0.1810031369        2.3738250865
 H          1.4802065843       -0.9469951736        1.7743082542
 H          2.5057272081        0.0979949999        2.3670341705
 O          1.3919884001        0.0737640470       -0.5490891514
 H          1.8796634577        0.9056613884       -0.3313435288
 H          1.2700611358        0.0693697422       -1.5243294498
 O         -0.9732150968       -2.6931530602       -1.0129822859
 H         -1.5421292789       -3.1661816692       -0.3884149246
 H         -1.5124818444       -2.0160306860       -1.4670428950
 O         -2.3477583642       -0.9134283938       -2.5301312781
 H         -3.2185083779       -0.9362866189       -2.1017447578
 H         -2.1267886555        0.0316957845       -2.6211362327
 O         -0.7270240824        3.1741859476       -0.6716451501
 H         -0.3286056392        2.5626042064       -0.0232851690
 H         -1.1669245411        3.8354793479       -0.1147548721
 O          0.4220817459        1.9415279677        1.3844729929
 H          0.8918652650        1.1762213536        1.8023123578
 H          0.9880637723        2.7256520198        1.5274959456
 O         -2.0681715535       -3.8869146248        1.2543195374
 H         -1.3568685793       -3.7771187378        1.9214751456
 H         -2.4632468651       -4.7443585997        1.4135281865
 O         -3.6911612363       -1.6751952617        1.4829860512
 H         -3.2075774950       -2.5136662048        1.3955041981
 H         -3.1110100814       -1.1081753028        2.0172625551
 O          0.0713489888       -1.1469775168        4.3360116058
 H          0.7977024093       -0.8079115353        3.7706696682
 H          0.0247766688       -2.0960919278        4.1370870871
 O          0.0466726885       -3.5281426123        2.9351724334
 H          0.5002169156       -3.0370792147        2.2032579735
 H          0.7125281089       -4.1279980872        3.2750575438
 O          0.8002417343        0.3272975163       -3.0955446649
 H         -0.0441739938        0.8289136765       -2.9661647005
 H          0.5585237942       -0.4151884985       -3.6701286081
 O          1.6902846979        4.1167373184       -1.3290525714
 H          1.9459666441        3.7477853599       -2.1946490905
 H          0.7542406255        3.8499125655       -1.1988525420
 O          3.6977407606       -1.3376575605        0.3228567153
 H          3.8456303226       -2.0901358368       -0.2582178633
 H          2.8876907874       -0.9175692979       -0.0194908310
 O          2.9943351012        2.1212846274       -0.1706924426
 H          3.5725656566        1.8222664474       -0.8995662450
 H          2.5744800956        2.9524541122       -0.4903686175
 O          4.0137594151        0.8452028970        1.9958004420
 H          4.3682592552        0.0761607956        1.5326520092
 H          3.7342347370        1.4546693539        1.2877541683
 O          4.3106986823        1.0259902189       -2.2476094179
 H          5.2377464040        0.8511484985       -2.0857082248
 H          3.8834007569        0.1511707920       -2.3626430679
 O          1.0966974943       -3.0074547483       -2.7098776227
 H          0.6823835281       -2.7888801006       -3.5549851504
 H          0.3632946217       -2.9524854874       -2.0674361738
 O         -4.4627151725       -0.7048661606       -0.8233422074
 H         -4.2024694776       -1.1117337767        0.0468344985
 H         -5.4132962736       -0.7879682189       -0.8908999364
 O         -1.4527510868        1.6528203220       -2.8090357707
 H         -1.5040617358        2.1149722584       -1.9519175898
 H         -1.2161023645        2.3534338363       -3.4487592171
 O         -1.4505217952        2.4356838438        3.1294344612
 H         -0.9902427107        2.3105945734        3.9979574693
 H         -0.7312965555        2.2819771464        2.4597971108
 O         -3.8291357305        2.4510083225        1.8673365165
 H         -4.5282361280        1.9852198627        2.3274114136
 H         -3.0682180505        2.4972742891        2.4743355290
 O          2.7446183713       -3.8357955094       -0.6545827140
 H          2.2703917809       -3.7459597245       -1.4952581822
 H          2.8452580133       -4.7706278520       -0.4766873807
 O          0.0876420688        1.6972515891        5.0932707761
 H          0.9421675044        1.9660545775        4.7164703722
 H          0.1077258702        0.7372552375        5.1747818898
 O          2.9692576569       -2.7594626304        2.6620099826
 H          3.5885951384       -2.5874658542        3.3706039923
 H          3.3182110643       -2.3088726204        1.8744292541
 O          1.4425307928        4.4387572714        1.5352214087
 H          1.7597765977        4.6684071182        0.6537398667
 H          0.5670840473        4.8389328427        1.6178398556
 O          2.2531459659        2.5196125961        3.5718264982
 H          3.0777609452        2.0816588157        3.3388487016
 H          2.2595492905        3.3855249080        3.1511006317
 O         -0.2162741800        3.6342593410       -4.1115975589
 H         -0.2413493032        4.4488021206       -3.6063718894
 H          0.7123889050        3.3686913287       -4.1633821991
 O         -0.5486459711       -1.6575644316       -4.4534525898
 H         -1.2929682960       -1.5230088610       -3.8366696146
 H         -0.8960476503       -1.5295664601       -5.3362248731
 O          2.2994011456        2.5568542923       -3.4932623044
 H          1.8171381762        1.7101006236       -3.4129383635
 H          3.2264161293        2.3215836213       -3.3767275256
 O         -1.4369743820        4.6891593850        1.5066618932
 H         -1.5064016996        4.0331460333        2.2241280668
 H         -2.2829433844        5.1351099198        1.4709765722
 O          3.3323436302       -1.4583525998       -2.6234418640
 H          2.4563159333       -1.8912108460       -2.5934290503
 H          3.8052997333       -1.8679362517       -3.3478403215
