  102

 H         -0.5425054113       -1.1597996591        0.9180873604
 C         -0.6112510051       -0.5412956737        0.0100749198
 H         -0.5391308395       -1.1969144471       -0.8712436604
 C          0.5103658647        0.5037878336       -0.0094871838
 H          0.3911098457        1.1518924074        0.8600966282
 H          0.3944399221        1.1152669960       -0.9056411633
 O         -1.7891825170        0.2100258092       -0.0077307044
 H         -2.5646581754       -0.3620747641        0.0026734597
 N          1.8637421187       -0.1172780951        0.0059475202
 H          1.9871272141       -0.7237037737       -0.8163106231
 H          1.9839787968       -0.6890763205        0.8531041595
 H          2.5930828886        0.6072400317       -0.0077051384
 O          4.2020016810       -0.6133395002       -2.0070332732
 H          3.8931007911        0.3105892838       -2.0332065513
 H          3.5092901375       -1.1078844820       -2.4707769787
 O          2.6565959510       -1.4503260268        2.2376427710
 H          2.0722126492       -2.1822926342        2.4804735191
 H          3.3780867018       -1.8210354633        1.6902591436
 O         -0.2793118800       -0.4187013344        3.4136197211
 H          0.5489876878        0.0752347292        3.4277164765
 H         -0.9515952776        0.2662304576        3.1973174273
 O         -3.6238675439       -1.4439995419       -0.8812638847
 H         -3.3005890821       -2.3270829934       -0.6463949114
 H         -4.5670138269       -1.3976226560       -0.5963959666
 O          1.6604133514       -1.3336307777       -2.4813230422
 H          1.0360466671       -2.0723065661       -2.4977284788
 H          1.1941112069       -0.5874058514       -2.8978954130
 O          0.1674642014        0.8249702154       -3.2812723305
 H         -0.6785699858        0.3488418258       -3.2311772160
 H          0.0062913422        1.7212073952       -2.9417643711
 O         -2.0031082458        1.3924459127        2.4798535931
 H         -1.7144037726        2.3073306497        2.3216886923
 H         -1.9928123997        0.9739650856        1.6006191050
 O          3.6839584978        1.7942887569        0.5029476506
 H          3.7807611924        1.5469000500        1.4475048797
 H          4.5844979376        1.7772245055        0.1395190051
 O          0.0670589892        3.1683220645       -1.8147279853
 H          0.5600142852        3.3737168076       -1.0043624111
 H         -0.8719731528        3.2638656898       -1.6037720387
 O          1.4314602426        3.3986972923        0.6730928021
 H          2.3071320549        3.1050817101        0.3790259623
 H          1.3427879187        2.9798461452        1.5473745697
 O          3.8493995296        0.8187634713        3.0238888320
 H          4.7809663283        0.5543185162        2.8745020003
 H          3.3771429964       -0.0302431233        2.9534787892
 O          4.2890464205       -2.1618394691        0.2335132439
 H          4.3583465678       -1.5628723163       -0.5351483663
 H          3.6114736900       -2.8049551070       -0.0151267762
 O          1.6102050647       -3.0654943076       -0.0443886527
 H          1.0899505361       -3.1824475487        0.7609650663
 H          1.0504336196       -3.3518917531       -0.7712288760
 O         -4.3211719174        2.4463908585        1.0389176179
 H         -3.6541670622        2.5408233801        0.3202412510
 H         -4.0959608943        3.1073932297        1.6973175319
 O          1.3711536126        1.9476944349        3.0537758256
 H          1.1567088255        2.4718874047        3.8268018304
 H          2.3061091723        1.6910383654        3.1405363787
 O         -4.5784209885       -0.0232612890        2.2535164800
 H         -4.3666498540        0.8418889575        1.8506089835
 H         -4.7224926217        0.1428247790        3.1863024021
 O         -1.3576104701        3.7929053286        1.3343866489
 H         -1.7535669124        3.6843168130        0.4618577443
 H         -0.4284363071        3.9980046193        1.1829436758
 O         -2.5342566906        2.5776204995       -0.9794669948
 H         -2.1237111679        1.7246958488       -0.7314702138
 H         -3.1415697593        2.3332149012       -1.7088703488
 O         -2.1356001843       -0.7579183443       -3.0444388581
 H         -2.7237780087       -0.8827137070       -2.2714228832
 H         -2.7155927873       -0.5172056873       -3.7681029718
 O         -4.3237683954        1.5181604175       -2.6591465066
 H         -4.7087559600        1.9274879094       -3.4340168350
 H         -5.0497646292        1.3801470691       -2.0251385588
 O          0.3644243051       -2.9058070800        2.5255578588
 H          0.0800751892       -2.0411103057        2.8881613654
 H         -0.0044702195       -3.5789888843        3.0970749224
 O         -2.5824049761       -1.9296664290        2.2221843812
 H         -1.9759862976       -1.5375293546        2.8570498724
 H         -3.3469412983       -1.3293823156        2.1794884088
 O         -2.1842754231       -3.5772975114        0.1060503610
 H         -2.2179444448       -3.0427368484        0.9257763363
 H         -2.5403514306       -4.4382170636        0.3278821293
 O          5.9673438680       -0.3168009098        1.8729521439
 H          6.2147331229        0.3287672023        1.1898334631
 H          5.6315302109       -1.0906620158        1.4078865858
 O         -0.5652471448       -2.9963079796       -2.1595289395
 H         -1.1300750997       -3.3348563123       -1.4494285543
 H         -1.1303623920       -2.4135993291       -2.6883989013
 O          2.7590944385        1.6727536904       -2.2097926656
 H          2.8949044383        2.6172672158       -2.2868331158
 H          2.0085291550        1.4544126014       -2.7750004013
 O         -6.2520169232        1.5582815621       -0.6741020194
 H         -5.6794580195        1.9256069651        0.0251405393
 H         -7.0758846446        2.0466260501       -0.6525810891
 O          6.3246028527        1.5220434932       -0.1591858925
 H          6.9823465572        2.2176147055       -0.1398811607
 H          6.5839188197        0.9058203479       -0.8871645111
 O         -6.0268929626       -1.1048253683        0.1356318104
 H         -5.7120197859       -0.8843619398        1.0248562229
 H         -6.3087883555       -0.2655881483       -0.2568415102
 O          6.8841727889       -0.3080731719       -1.9814235996
 H          7.2789744288       -1.1101473836       -1.6331177008
 H          5.9604158736       -0.5225137770       -2.2053649051
