  116

 H          0.4630927076        1.1941025328        0.8323452958
 C          0.5529035761        0.5095402430       -0.0251092076
 H          0.4633421182        1.0989800596       -0.9466436097
 C         -0.5779259333       -0.5149488604        0.0205351875
 H         -0.4518492549       -1.1270258237        0.9278134321
 H         -0.4840892691       -1.1748678656       -0.8448928486
 N         -1.8603253885        0.1647702475       -0.0623309410
 H         -2.6131021662       -0.5138473280       -0.0751527666
 H         -1.9956541839        0.7570092262        0.7508171932
 O          1.7808081027       -0.1833448059        0.0209869107
 H          2.5006908393        0.4507195084       -0.0567171281
 O         -1.0481605197        0.1254863714       -3.8892553614
 H         -1.3138361955       -0.7069446869       -3.4647929284
 H         -1.5392391481        0.8231270663       -3.4330329986
 O          2.4341455801       -1.1807160865       -2.4658900998
 H          2.1294937512       -0.9506679693       -1.5639499937
 H          2.1661055447       -0.4368685888       -3.0333568209
 O          3.9259964618        1.3511230564       -0.5496411998
 H          4.4886059297        1.8451803206        0.0749605619
 H          4.4402210576        0.5847130751       -0.8740261800
 O          4.9091160531       -1.0384141097       -1.4187361806
 H          4.1661743328       -1.1368739458       -2.0456455722
 H          4.6668493679       -1.6456224475       -0.6860670979
 O         -4.1186948296       -0.2631612451       -2.8009481760
 H         -3.5542501130       -1.0245360840       -2.9951250674
 H         -3.4927361951        0.4755016205       -2.6295336621
 O         -5.3501910245       -1.0981249153       -0.5707856673
 H         -4.9178080223       -0.8895597012       -1.4243515455
 H         -6.3187326327       -1.0551312916       -0.7288570233
 O          3.8619447929       -2.4241366235        0.6324445995
 H          3.0084946181       -2.7782534125        0.3240683799
 H          3.6554215249       -1.5627509650        1.0444316928
 O         -2.0159177326       -2.1318129914       -2.5111506156
 H         -1.1479199181       -2.5794080492       -2.5985015999
 H         -2.3253392497       -2.3945607543       -1.6300842809
 O          0.4916665427       -3.1045241442       -2.3560306778
 H          0.7485096659       -3.1836049206       -1.4198527214
 H          1.1851666034       -2.5337083743       -2.7241840736
 O          3.7313060399       -0.2206920596        2.2173204186
 H          3.3786814491        0.6599459953        1.9856596406
 H          3.2712925693       -0.4761710037        3.0204560902
 O          1.0878246089        0.6083037339        3.4768688369
 H          1.6812596481        1.2753259004        3.0949992178
 H          0.1928402096        0.9616568106        3.3509651658
 O          1.4607406183        0.8650089435       -3.9689450071
 H          1.6984662692        0.9204893585       -4.8939004267
 H          0.5087328704        0.5805175426       -3.9446993181
 O         -2.4078770907        1.7026288348       -2.1006859856
 H         -3.0509182925        2.2903627368       -1.6516910743
 H         -2.0789791848        1.1146146395       -1.3467344004
 O         -4.1649899189        2.9154928628       -0.4795214094
 H         -4.9301699298        3.0059986267       -1.0557024768
 H         -4.3948706840        2.1950501077        0.1504671855
 O         -1.3935396026        1.7920148892        2.9999817605
 H         -1.5875837992        2.3701390921        3.7389312052
 H         -1.4540599408        2.3623872033        2.1943871803
 O         -1.6966815715        3.3189270770        0.8632622811
 H         -1.1578330407        3.3877237841        0.0491025143
 H         -2.6086140148        3.3916862299        0.5553511213
 O         -0.4335319426        3.5324268871       -1.5045275891
 H          0.4618008935        3.2888724783       -1.7930024246
 H         -1.0546146983        2.9624451668       -1.9859384549
 O          2.1606886143        2.7484310442       -2.0788824101
 H          2.8546998554        2.2879026240       -1.5702982621
 H          1.9724105575        2.1647797338       -2.8315509418
 O         -2.5384438284       -2.9845556915        0.1449692543
 H         -2.0451580571       -2.7667106022        0.9556717877
 H         -3.4468444376       -3.1242789097        0.4733547235
 O          1.2973815725       -3.2730054909        0.2909167869
 H          0.7044694948       -4.0454926016        0.3528069201
 H          1.1108111937       -2.7139957619        1.0638749754
 O          1.0178727689       -1.9735206996        2.7258161673
 H          1.8156378370       -2.4003748328        3.0852584709
 H          1.0676083399       -1.0216836234        2.9634548376
 O         -3.1290536400       -0.3793970478        2.8374071408
 H         -2.5865526282       -1.1850112500        2.8137269030
 H         -2.5073103440        0.3451867593        3.0150208162
 O         -4.8428406735        0.8788120960        1.1165740246
 H         -5.0069110872        0.1378898054        0.4867020590
 H         -4.2923771447        0.4993789341        1.8219376912
 O          1.7004464406        4.1068868752        0.4299276161
 H          1.9870970558        3.8546261851       -0.4569644449
 H          0.7705872780        4.3348788700        0.3530545260
 O          5.4321387920        2.6631215519        1.3307907413
 H          6.1248997329        3.2612722990        1.0536646913
 H          5.8836057114        1.8637468917        1.7183553398
 O         -1.5303082603       -2.6365150932        2.6788732760
 H         -0.5707640080       -2.4385577711        2.7847076703
 H         -1.7026292711       -3.4582405029        3.1393597259
 O          7.2814314664       -0.2195386445       -0.4018434082
 H          7.9430907566       -0.8912174762       -0.5655647618
 H          6.4852577872       -0.4928794885       -0.8917769155
 O         -0.7178184455       -5.0001926035       -0.2134543166
 H         -0.5199224434       -5.0482050419       -1.1519700964
 H         -1.4667537329       -4.3789570420       -0.1351266044
 O         -7.3493041874        1.6709171224        0.2631732687
 H         -6.5964813926        1.4979342948        0.8499403845
 H         -6.9519600520        1.8954872833       -0.5933460933
 O         -6.0909256159        1.7314498140       -2.2373718035
 H         -6.8498054561        1.6112528164       -2.8090417657
 H         -5.4793961941        1.0130622875       -2.4593588562
 O         -4.8372485037       -2.7253317880        1.5445856692
 H         -5.1757321439       -2.2038109061        0.7969849971
 H         -4.5626673650       -2.0867889216        2.2096223669
 O          3.4938413129       -2.9905688344        3.2819214141
 H          4.2588713238       -2.6247637159        3.7258827477
 H          3.7315137246       -3.0323393623        2.3337208049
 O         -7.9850999774       -0.7392304236       -0.6765203430
 H         -8.4550491183       -1.2685434664       -0.0320027068
 H         -7.9146521336        0.1688636282       -0.2945604038
 O          6.4187755813        0.3721139166        2.1262245384
 H          6.7994067710        0.1030528338        1.2689110528
 H          5.5370046826       -0.0348577820        2.1775601111
 O          2.7906943223        2.3268294566        2.1164935066
 H          3.7015241949        2.6518904791        2.1080763365
 H          2.3127255055        2.9464495295        1.5275216762
