  131

 H          0.4630927076        1.1941025328        0.8323452960
 C          0.5529035760        0.5095402430       -0.0251092076
 H          0.4633421182        1.0989800596       -0.9466436096
 C         -0.5779259333       -0.5149488604        0.0205351872
 H         -0.4518492549       -1.1270258238        0.9278134317
 H         -0.4840892692       -1.1748678657       -0.8448928486
 N         -1.8603253885        0.1647702476       -0.0623309409
 H         -2.6131021663       -0.5138473280       -0.0751527665
 H         -1.9956541838        0.7570092262        0.7508171934
 O          1.7808081027       -0.1833448060        0.0209869108
 H          2.5006908393        0.4507195083       -0.0567171280
 O          3.8113003097        1.3909602886       -0.0517493875
 H          4.1861172503        1.4642197246       -0.9671393100
 H          4.4881483940        0.9789908653        0.5160378867
 O          5.2784273565        0.0074712367        1.7682710718
 H          4.7327206531       -0.7843560105        1.6024200211
 H          4.8186588185        0.5134058132        2.4686424734
 O          2.0829134830       -0.7112226195        2.7278723077
 H          1.9283583238       -1.6550167270        2.9246887752
 H          2.0860613803       -0.6552750718        1.7534799521
 O         -1.5562992297        4.0774628113       -0.8827957934
 H         -1.7590645718        3.2442759281       -1.3725994142
 H         -1.7295595086        3.8792875607        0.0594169986
 O          1.0873743763        3.9840683315       -1.0715947506
 H          0.0993843233        4.0466706630       -1.0134338214
 H          1.3877401571        4.8274505541       -1.4118529394
 O          2.3010143274        3.1459134065        1.2421272792
 H          2.8469172703        2.4780152313        0.7724929740
 H          1.8246256601        3.5878472251        0.5170377244
 O          0.0756890946        2.7723387567        2.8665882575
 H         -0.0094649852        1.8409665324        3.1215724980
 H          0.8953824233        2.8803854507        2.3552057578
 O         -2.1465691004        3.4387480373        1.6612123456
 H         -1.3188354775        3.1606015492        2.1354479790
 H         -2.5982730226        4.0244896828        2.2698081035
 O          1.4300594310       -3.2590279825       -0.1310733549
 H          2.1782390670       -2.7018727594        0.1619664588
 H          1.4464019065       -3.2224752257       -1.1020034616
 O          3.7907292284       -2.0257435970        0.6271077553
 H          4.3069213967       -2.8378356153        0.7112877497
 H          4.1423738630       -1.6181806857       -0.1937063752
 O          1.4686382121       -2.9509045616       -2.9126976650
 H          1.9402111747       -2.0830574289       -2.8992783115
 H          1.9702117457       -3.5252102794       -3.4911195791
 O          2.6340349550       -0.6179720576       -2.5231683777
 H          2.4801642033        0.2806604086       -2.8669925630
 H          2.2642924229       -0.6003295019       -1.6182393336
 O          1.9988801748        2.0367305634       -2.9446102646
 H          1.1748569421        1.7476062247       -3.3986736681
 H          1.7184286814        2.6782972452       -2.2736656987
 O         -2.2099813210        1.8189558283       -2.0917369511
 H         -1.9778918815        1.1520965757       -1.3787295768
 H         -3.1648433937        1.7204966718       -2.1947875601
 O         -0.2856639297        1.0208950584       -3.8539656076
 H         -1.0091952970        1.4560765559       -3.3743802096
 H         -0.4046379680        0.0766312726       -3.6505788153
 O         -0.9220971145       -1.5645812351       -3.1094875212
 H         -0.1645223763       -2.1677515440       -3.1571149404
 H         -1.5695857264       -1.8507470387       -3.7895144216
 O         -4.9938852440       -1.4281716164       -0.5512458795
 H         -4.8804408584       -0.5396335206       -0.9415368669
 H         -4.2775435023       -1.9812235711       -0.9244479859
 O         -2.8099242244       -2.6973471241       -1.4462528032
 H         -2.1638615426       -2.1682356853       -1.9523939153
 H         -2.2964159015       -3.1489197102       -0.7584340786
 O         -0.4165115613        0.0794142798        3.3472015927
 H          0.5202335195       -0.1854593291        3.2447995330
 H         -0.9237935107       -0.7311424681        3.1722510548
 O         -1.1217323455       -3.8249905196        0.4282893870
 H         -0.2035376523       -3.5609674954        0.1945509342
 H         -1.1176759360       -4.7790477721        0.5126771620
 O          3.6250879578        1.4546891754        3.3235926541
 H          3.0321462193        0.6833390037        3.3486661708
 H          3.1183668515        2.1576170649        2.9031083575
 O         -1.8045583682       -2.2269029682        2.6170803382
 H         -1.7144854702       -2.8140323085        1.8500691692
 H         -2.6649024971       -1.7821611945        2.4965566585
 O         -4.0985012347       -0.8860100416        1.9546832501
 H         -4.4775749104       -1.2241754479        1.1186682741
 H         -4.8698335859       -0.6868706403        2.5235224961
 O          4.7161736982        1.6489170485       -2.4918960627
 H          3.9261245233        2.0145914012       -2.9112584210
 H          5.2915613541        2.3889693939       -2.2153256126
 O         -4.1534907555        1.7164093274        1.0374448372
 H         -4.0813671773        0.8958058617        1.5636473961
 H         -3.4216633929        2.2890321520        1.3382902570
 O         -4.7982061926        1.1454268349       -1.4780091274
 H         -5.7315674390        1.4214330110       -1.4850904431
 H         -4.4809532747        1.4089383433       -0.5800146918
 O          7.0127971294        0.5688928416       -0.2306956337
 H          6.5043324604        0.3618468771        0.5769723549
 H          7.9215060013        0.3263046966       -0.0557075491
 O          5.1296849881       -1.1239155024       -1.5542177252
 H          5.7367397046       -0.3835651724       -1.4111906283
 H          4.4192416483       -0.7968400491       -2.1351287965
 O         -6.3341020773        0.0926772177        3.0351464276
 H         -6.8591877570       -0.1369522822        2.2360383952
 H         -6.3239906753        1.0507235197        3.0792855996
 O         -6.0786112618        3.5405202334        0.6204390658
 H         -5.4436726322        2.8917873236        0.9807963881
 H         -5.5476573824        4.0569369355       -0.0103182038
 O          6.2539373916        3.2097057517       -0.9422656373
 H          6.6973999534        2.3799551788       -0.7132125446
 H          5.8473902739        3.5170106977       -0.1151374585
 O         -3.0751336071       -2.4970017803       -4.3622528898
 H         -3.2785955586       -3.0864347340       -3.6285208042
 H         -3.7300214748       -1.7795443978       -4.2979662757
 O          5.0686098270        3.7112087439        1.5632263991
 H          5.2238467951        3.1028429720        2.2898692116
 H          4.1073999606        3.8050231301        1.4946021629
 O         -2.9453835831        1.3644559673        3.5426298782
 H         -3.4759038398        0.7955355866        4.1011541855
 H         -2.0441886677        1.0199065460        3.5843063161
 O         -5.0258894606       -0.7044823173       -3.6093535894
 H         -5.6860789879       -1.2299951706       -3.1516601402
 H         -4.8063057136        0.0287691763       -3.0196850203
 O         -7.3355738486        1.8592148446       -0.9135661418
 H         -6.9660573310        2.5494120620       -0.2878756156
 H         -8.1532252784        2.2098948963       -1.2627035862
 O         -7.3834999488       -0.4593495580        0.6194067900
 H         -6.6981811054       -1.0053204164        0.2123808967
 H         -7.4402519231        0.3466048467        0.0785588285
 O         -4.2881473838        4.4425740468       -1.2850932894
 H         -3.3320436851        4.5194219116       -1.1166284144
 H         -4.3735029942        4.0428942627       -2.1519175987
 O          1.0212222523       -3.1832522435        2.8289341158
 H          0.0857197023       -2.9873415517        2.9602104251
 H          1.1328028002       -3.4372664122        1.9059962238
 O          5.8765456001       -3.5366634258       -0.3934500839
 H          6.8221868946       -3.5763680321       -0.2536207700
 H          5.7195915036       -2.7929356598       -0.9984443934
