  147

 H         -0.5425054112       -1.1597996585        0.9180873602
 C         -0.6112510051       -0.5412956739        0.0100749182
 H         -0.5391308395       -1.1969144469       -0.8712436600
 C          0.5103658647        0.5037878336       -0.0094871840
 H          0.3911098457        1.1518924073        0.8600966287
 H          0.3944399221        1.1152669956       -0.9056411629
 O         -1.7891825170        0.2100258093       -0.0077307039
 H         -2.5646581753       -0.3620747640        0.0026734602
 N          1.8637421187       -0.1172780950        0.0059475209
 H          1.9871272140       -0.7237037739       -0.8163106224
 H          1.9839787969       -0.6890763205        0.8531041601
 H          2.5930828886        0.6072400317       -0.0077051380
 O          1.8388343055       -1.5814749135       -2.3158572879
 H          2.0267286202       -1.1115873215       -3.1513390038
 H          0.9781999844       -2.0331263389       -2.4583228631
 O          3.7911307486        1.7530374458        0.5293777448
 H          4.0561986989        1.3328593170        1.3843749846
 H          4.6240789207        1.8655457377        0.0384284540
 O          1.8335021948       -0.3209661550        2.7001724833
 H          1.5694022538        0.6117641364        2.7172165348
 H          1.0939236989       -0.7848774109        3.1521885968
 O         -2.0186184046        2.2082714241        1.7986959669
 H         -1.9597244563        1.4963128573        1.1276354348
 H         -2.4410198502        2.9661843135        1.3411689458
 O         -0.5662072050       -2.6919825813       -2.6331343829
 H         -0.7566677377       -3.1721841402       -1.8094692994
 H         -1.3301551418       -2.1273131653       -2.8289642279
 O         -3.5989290622       -1.7023685356       -0.4800354828
 H         -4.5790337712       -1.6660885060       -0.5228968131
 H         -3.4114773730       -2.6406316657       -0.2393500287
 O          3.5802474074       -2.5838613179        2.4483909277
 H          3.1210253535       -2.3449995526        3.2556298209
 H          2.8862091983       -2.9003734125        1.8359567681
 O         -2.1628779494        0.7939682190        4.0480823335
 H         -1.8825391192        1.2467060812        4.8465797206
 H         -2.1240166523        1.4496211065        3.3217752923
 O          0.5138355785        2.2366870328        2.6284134833
 H         -0.4244145103        2.3623496045        2.3809617640
 H          0.5186575211        2.1143069176        3.6025398787
 O          1.9124823199        3.6049954469        0.8571265509
 H          1.3820354212        3.2221018609        1.5914162853
 H          2.6022750827        2.9245262605        0.6943591628
 O          1.7711724264       -3.0281792216        0.5010978132
 H          0.8909784056       -3.3991719265        0.3360115165
 H          2.3452277850       -3.3932415558       -0.1829845459
 O          4.2628058178       -1.2627447544        0.0146362626
 H          4.1686997655       -2.0802091595       -0.5165415411
 H          4.1299346584       -1.5427963246        0.9269303577
 O          3.7126361926       -3.3318249320       -1.5959004075
 H          3.0230857674       -2.7838638382       -2.0308827781
 H          4.5000972034       -3.2465255103       -2.1454909385
 O         -2.5868993910       -0.7228158769       -2.7236263817
 H         -2.0461354644        0.0258163383       -2.4382192294
 H         -2.9841992124       -1.1085274144       -1.9019788945
 O          4.1505892847        0.4352905594       -2.0909115852
 H          4.8595314860        1.0776473353       -1.9461841708
 H          4.1656387930       -0.1316093858       -1.2949530930
 O         -0.9519301370        1.9669172328       -2.4468264958
 H         -0.7720163930        2.7065435672       -1.8349283824
 H         -0.1048769036        1.7975539816       -2.8782822007
 O         -3.5776541138        2.3862474009       -1.8464876754
 H         -4.1246449422        1.9953376359       -2.5445667780
 H         -2.6611158020        2.2309238990       -2.1232024470
 O          6.1471818888        1.8040354528       -0.8306112172
 H          6.9033920469        2.3901179257       -0.8413593519
 H          6.5108835496        0.8894454863       -0.6523261397
 O         -3.0049836714        4.1159566759        0.2244584613
 H         -3.3842036023        3.6494825391       -0.5371564729
 H         -2.1255515881        4.3924271038       -0.0683861894
 O         -0.3379461309        4.0565069625       -0.7625073988
 H          0.3619309274        3.8588012814       -0.1140781270
 H          0.0629745839        4.6651662909       -1.3889407371
 O         -0.3414376928       -1.2743662343        3.8550150422
 H         -0.9831163629       -0.5482736929        3.9636298802
 H         -0.8087186208       -1.9488689682        3.3360703972
 O         -5.4343265891        2.9950489833        1.6745991151
 H         -6.1029203240        3.1919334625        0.9825376732
 H         -4.8077082076        3.7241706859        1.6535374424
 O         -3.7888247792       -0.6666827352        2.3815806419
 H         -3.9205857231       -0.1097237562        1.5865818895
 H         -3.2970037610       -0.1489028463        3.0371323240
 O         -1.9906129675       -2.6951340102        2.1670235135
 H         -2.6544935188       -1.9747809622        2.1202433806
 H         -2.4816917710       -3.4695372909        2.4530480303
 O         -0.8576031080       -3.7840085646       -0.0873850675
 H         -1.2605411146       -3.3200836996        0.6722975151
 H         -1.4196822317       -4.5554632151       -0.2082815927
 O         -6.4256164429        0.6920582557       -1.4203672066
 H         -5.7185184633        0.7230525378       -0.7355349323
 H         -5.9637809096        0.6848732712       -2.2734429843
 O         -4.3960346547        0.9889287072        0.3197571528
 H         -3.9172781406        1.4424642142       -0.4006555808
 H         -4.7565544421        1.7104695621        0.8880832331
 O         -4.7205551118        0.6187170503       -3.5972996355
 H         -3.9526834000        0.0359650209       -3.3783293616
 H         -4.9232412225        0.4834088106       -4.5222172169
 O          1.8485660160        1.7830539115       -2.7196267448
 H          2.6595289960        1.2959335861       -2.4744724467
 H          2.0330567741        2.7175969353       -2.5335600343
 O         -3.5635478712       -4.2698290075        0.2087628891
 H         -4.1596547153       -4.0983647931        0.9620516816
 H         -4.1481038039       -4.4924599464       -0.5380221464
 O          6.9767835835       -0.6511041007       -0.4793246609
 H          6.5939731115       -1.1729022997       -1.2042597596
 H          6.6046959244       -1.0117620555        0.3389105383
 O         -6.2663154665       -1.8831015904       -0.7182097074
 H         -6.6982158963       -1.9483791192        0.1554254780
 H         -6.5636981293       -1.0305950983       -1.0877259023
 O         -5.0453300119       -3.2023053659        2.2370606529
 H         -4.7076850509       -2.3071253505        2.3774808165
 H         -5.9961546425       -3.0866465796        2.1248622770
 O          4.4351169714        0.4430568124        2.7308749855
 H          5.1438363044       -0.1970932907        2.5560986270
 H          3.6024933750       -0.0595238780        2.7986372158
 O          5.6982407726       -1.7308399922       -2.7870256643
 H          5.0712155529       -0.9832125177       -2.8176123714
 H          6.2087376071       -1.7041617722       -3.5960693463
 O          2.3515275298        4.3533787783       -1.8060105926
 H          3.1609860374        4.8208890505       -2.0112500068
 H          2.3147117208        4.2498473158       -0.8425119015
 O          2.0039354836       -0.1930707660       -4.6309940715
 H          1.2584200247       -0.3089476336       -5.2209399027
 H          1.9092189853        0.6722100911       -4.2011424444
 O          6.1753358638       -1.6412651134        2.1672593369
 H          6.9434957509       -1.9485364566        2.6498386715
 H          5.4591271532       -2.2787814177        2.3165418241
 O         -7.4139526728       -1.7657097875        1.7151232999
 H         -8.3677745975       -1.7739365569        1.7913900694
 H         -7.1116920437       -0.9231686933        2.1202097228
 O         -6.9296458485        3.2152682709       -0.5281921890
 H         -6.9708907547        2.3062637296       -0.8841782357
 H         -6.6705793977        3.7840459487       -1.2534782234
 O         -6.3722635408        0.4439051880        2.8270660050
 H         -5.4761148755        0.0927815448        2.9235611884
 H         -6.2830537891        1.3691922503        2.5726265936
 O          0.5813203016        1.4177729642        5.1502038185
 H          1.5304992451        1.6603642128        5.1909040208
 H          0.5507990281        0.4607463200        5.2341182176
 O          3.1435674130        2.0320437776        4.6779022730
 H          3.7503487557        1.4490794419        4.2049464447
 H          3.2450036315        2.8973340542        4.2498605862
 O         -5.2461075576       -4.1235391432       -1.9010378191
 H         -5.7695341013       -3.3907696133       -1.5311860057
 H         -4.9652826484       -3.8484204737       -2.7739648843
 O          3.6835295932        4.1396062579        2.9671858325
 H          4.5545073911        4.0204888091        2.5869270042
 H          3.0535879634        4.2123633114        2.2348518781
