  252

 H         -0.5425054112       -1.1597996586        0.9180873602
 C         -0.6112510051       -0.5412956741        0.0100749180
 H         -0.5391308395       -1.1969144470       -0.8712436601
 C          0.5103658647        0.5037878336       -0.0094871840
 H          0.3911098457        1.1518924073        0.8600966289
 H          0.3944399221        1.1152669956       -0.9056411631
 O         -1.7891825170        0.2100258093       -0.0077307041
 H         -2.5646581753       -0.3620747641        0.0026734600
 N          1.8637421186       -0.1172780948        0.0059475213
 H          1.9871272141       -0.7237037740       -0.8163106220
 H          1.9839787968       -0.6890763207        0.8531041602
 H          2.5930828886        0.6072400317       -0.0077051381
 O          4.5894247269       -2.2869590815        2.4582955239
 H          4.1572536955       -2.4680832693        1.5890200195
 H          4.1043759778       -2.8324057425        3.0923825087
 O          1.9874697794       -1.3328509409       -2.4097835232
 H          1.6616404397       -0.4996440983       -2.8005495697
 H          1.3531493864       -2.0099475811       -2.7121632489
 O          0.7312977583        0.8366832168       -3.3903505778
 H          0.8041015951        1.5885358361       -4.0175030678
 H         -0.1797066937        0.9272596096       -3.0401922392
 O         -2.2524305807       -2.3747763439        1.8246130998
 H         -2.7507301235       -1.5309243331        1.8417354557
 H         -2.8704415600       -3.0393606350        2.1843328288
 O          1.7566277546       -1.2499161173        2.4044010122
 H          2.0419153102       -1.9952070742        2.9492585425
 H          1.2514965885       -0.6507846116        2.9750605990
 O          0.3049743204        0.5296269027        3.9323793052
 H         -0.4306258309        0.8761134330        3.3714720853
 H          0.9885180627        1.2258460683        3.8318222637
 O          0.3942254757       -4.1328483417        2.5361273310
 H          1.3409709719       -4.3759845465        2.5735665525
 H          0.2051623670       -3.5248763239        3.2662060541
 O         -0.8101401830       -2.1161586768        4.0638806631
 H         -0.3795581883       -1.2540852411        4.0943400189
 H         -1.2462749586       -2.1832312772        3.1850330183
 O          2.2225830915        2.2263216873        3.2091379911
 H          2.0444702589        2.6814628711        2.3580142734
 H          2.8981990170        1.5531636079        3.0301085731
 O          3.7727689270        1.5621996967        0.6941372599
 H          4.0161414728        1.0243497572        1.4649841924
 H          4.5838139123        2.0179718514        0.4187915133
 O         -3.4879999369       -0.0609617336        2.2336500787
 H         -2.7793297916        0.6190371669        2.2529572223
 H         -4.2199368248        0.2955433539        1.7151551124
 O         -1.5472117981        1.7262372250        2.5133262094
 H         -1.3037767139        2.2840445997        1.7486813860
 H         -1.9326091523        2.3286537838        3.1917534774
 O          5.0050516321       -0.5429498899       -0.8600554676
 H          4.5013483140       -0.1116974555       -1.5805340007
 H          4.3993612460       -1.1884457139       -0.4372884621
 O         -4.9098126613        2.2973331286        3.2094730588
 H         -5.7454556363        2.7398190220        3.0063434082
 H         -4.4283183336        2.2888657517        2.3621098920
 O          2.2625403401        2.5552102350       -1.5240611051
 H          2.8727139799        3.3195868006       -1.6307229200
 H          1.4549234200        2.8183547610       -2.0129936116
 O          0.0235070597        3.6439837155       -2.4406507746
 H         -0.6138740918        3.2012656554       -1.8697445424
 H          0.2777577794        4.4715913882       -1.9810822150
 O         -3.6316807104        2.3962505582        0.7326036679
 H         -4.2284898375        2.5093440436       -0.0391265286
 H         -2.8403816246        1.9422966247        0.4201005219
 O         -3.9425052765       -1.3642563611       -0.2998266406
 H         -4.5733169634       -1.3736953960        0.4462325793
 H         -4.2347032772       -0.7028198341       -0.9582788945
 O         -1.7538690795        1.2300460462       -2.4589148254
 H         -2.1395684348        0.5476239933       -3.0230138913
 H         -1.8267455701        0.8826576575       -1.5426791806
 O         -3.3139613326        5.0331401196        1.2548972826
 H         -2.5831421497        5.1362355238        1.8883163945
 H         -3.4165990230        4.0637194348        1.1498504104
 O         -0.7974387779        3.1733440176        0.3542627970
 H         -1.2600219758        3.9389472426       -0.0332605973
 H          0.0112408195        3.5245451936        0.7459374985
 O          4.2045419286        0.2563490594        3.0651397736
 H          5.1316386082        0.5395349349        3.1163957135
 H          4.2499713817       -0.7082417866        2.8321930238
 O          1.9136363384        3.6572180626        0.9111199377
 H          2.0652164636        3.0485336085        0.1542499908
 H          2.7918040293        4.0766937410        1.0496742292
 O         -5.8953546117        0.6325511350        0.5090669753
 H         -6.3183374186        0.7516090986       -0.3533875783
 H         -6.5275019916        0.0666022488        1.0096055117
 O          5.4881781577        2.8969405247       -2.9211801313
 H          4.9151621232        2.0992444945       -2.8514598276
 H          6.3339663391        2.6397430515       -2.5490040638
 O          0.9918730166       -2.9455340650        0.1633589665
 H          0.8002649688       -3.6398556095       -0.4876018189
 H          0.7221563340       -3.3062653478        1.0282913733
 O          3.7972550827        0.8260853881       -2.7678029628
 H          3.0944663844        1.3926647474       -2.3738104025
 H          3.5035801466        0.5601662145       -3.6602291920
 O          7.1588444295        0.9594038812       -1.3581054283
 H          7.9375781106        0.5571207608       -0.9386598091
 H          6.3944827083        0.4444818474       -1.0257483067
 O          3.5406553417       -2.5190258222        0.0499273677
 H          3.8835217014       -3.2010031852       -0.5615499817
 H          2.5685912724       -2.7045223993        0.1405747670
 O         -5.4915784000       -2.0631377550        1.7806790985
 H         -5.6901883688       -1.4676022139        2.5279011079
 H         -5.1332953247       -2.8820611013        2.1439212922
 O         -2.1390351842       -1.6936823577       -2.5491234307
 H         -2.9123916075       -1.9749500564       -3.0763641525
 H         -2.1583393553       -2.2789274684       -1.7708711706
 O         -3.0621928055        3.5852014155       -2.9229231786
 H         -2.6158271473        4.3006439737       -2.4479441721
 H         -2.5123413917        2.7845186690       -2.8057719390
 O          6.7321543057        0.7951280167        2.3488580287
 H          7.6471905176        1.0617785232        2.5581152269
 H          6.8078278994       -0.0860312459        1.9396699691
 O         -4.5135213647        0.4362081653       -2.2074624751
 H         -5.2521861493       -0.1386817174       -2.5246362554
 H         -4.8913564562        1.2473435827       -1.8418444773
 O          7.0057641697       -1.7653762273        1.2944839953
 H          6.8995078566       -2.2010954319        0.4340109798
 H          6.2549521499       -2.0751151140        1.8330452363
 O          6.7623413923       -2.4834602365       -1.3931130691
 H          7.2076489473       -2.3183877842       -2.2271955655
 H          6.1011266806       -1.7574389630       -1.3095626109
 O          3.8319812256        4.6948376394       -1.6413333643
 H          4.1611652223        4.8850780797       -0.7526585194
 H          4.5579019352        4.2676965559       -2.1300036917
 O         -2.0391182776       -3.6840593314       -0.5577560104
 H         -2.0353982690       -3.1596070841        0.2712132229
 H         -2.9519406887       -3.9790782132       -0.6898675011
 O         -4.7133793894       -3.7975696138       -1.0691326657
 H         -5.6387539076       -3.9207173756       -0.8412532427
 H         -4.5016613515       -2.8773145976       -0.7816752891
 O          0.0159811572       -2.7289765597       -3.6390604702
 H         -0.7740069475       -2.2601817425       -3.2593314289
 H          0.2440694378       -2.2279799350       -4.4500396292
 O         -6.2825345732       -1.3646141157       -2.9407414851
 H         -6.5646413934       -1.7776690330       -2.0975617397
 H         -5.6793914978       -1.9928753254       -3.3669955408
 O          4.4039793505        4.6611106533        1.1269625354
 H          5.1296460771        4.0477503480        0.9249930576
 H          4.3945414224        4.7185559548        2.0984832719
 O          4.5882319945       -4.1155557728       -1.8584156997
 H          5.5109122303       -3.9051550053       -1.6489364396
 H          4.3915201314       -3.5915429899       -2.6624314799
 O         -3.9245475117       -4.2625470230        2.7572629283
 H         -3.9773423183       -4.4632321001        3.6919949682
 H         -3.2661973583       -4.8938367084        2.3742098121
 O         -1.8328631277       -5.5044466050        1.7045204650
 H         -1.0300437825       -5.1146827119        2.0964262016
 H         -1.7957033679       -5.2652868428        0.7717434005
 O          4.2330909974       -2.1557794265       -3.6872982544
 H          5.0196182162       -1.6092634976       -3.5288374953
 H          3.4991908973       -1.7901857783       -3.1518043676
 O          6.5607626065       -0.5969536086       -3.5675902712
 H          6.8138821273        0.0765265958       -2.9103343974
 H          6.5903578457       -0.1773267213       -4.4272660598
 O         -5.1278333314        3.0417752613       -1.3729833775
 H         -5.4465898462        3.8559527900       -0.9000210005
 H         -4.4454147526        3.3458454966       -2.0153788698
 O          2.9666104886       -4.7445445177        2.0671284695
 H          3.3895311225       -5.4944143576        2.4824024430
 H          2.8296989909       -5.0013308982        1.1287923666
 O         -2.6373230088        3.1776296830        4.4424762747
 H         -2.3807150339        2.5094220497        5.1210148882
 H         -3.5667112850        2.9949679044        4.2216280703
 O         -6.9762234008        2.8967496809        1.5852170062
 H         -6.5257141421        2.1312217336        1.1633623126
 H         -7.9157456413        2.7528491830        1.4337770798
 O          3.2473585315       -0.0984381773       -5.2731962060
 H          3.6713751494       -0.9487497869       -5.0723722962
 H          2.3450281164       -0.3289517437       -5.5500365293
 O          1.0831799883        5.5770737781       -0.9193199187
 H          1.9152236773        5.7651978208       -1.3649649691
 H          1.3277622282        5.0379033913       -0.1437987467
 O          6.2286645548        2.6994677422        0.5123043696
 H          6.4391168762        2.1059658693        1.2634715463
 H          6.6700891995        2.3050050682       -0.2575999274
 O         -7.3331236102        1.5266221193       -1.7513630905
 H         -7.2892963034        1.3766750396       -2.7284093108
 H         -6.7720734237        2.3085104221       -1.6142015156
 O         -7.0472110895       -2.3351963316       -0.5204684883
 H         -6.7044219697       -2.1941722190        0.3780379153
 H         -7.9175912520       -1.9084361598       -0.5372981514
 O         -1.1284144012        4.8115175827        2.8684560175
 H         -0.5176713674        5.4095652399        3.2967199351
 H         -1.6044878894        4.3387007425        3.5741540722
 O          2.6383345968       -2.9332369285        4.3966635033
 H          2.7497921176       -2.0949710705        4.9003452096
 H          2.3153881999       -3.5879909723        5.0136120302
 O         -5.9374534602       -0.2291034141        3.8015633326
 H         -5.4220665806       -0.5679090088        4.5393680300
 H         -5.5671132368        0.6556824704        3.6154680798
 O         -9.1404601427        1.5726112454        0.4113422784
 H         -9.9820826070        1.2096664436        0.1304589020
 H         -8.5965008716        1.6228925481       -0.3938454775
 O         -3.2755982666       -1.0012803243        4.7922086475
 H         -2.5047251781       -1.5893048269        4.7471668920
 H         -3.4086291781       -0.6671668680        3.8851221847
 O          0.5776159493       -0.8542420909       -5.4475541470
 H         -0.1951607256       -0.5968803867       -5.9610937561
 H          0.5592091650       -0.2280980671       -4.6854297663
 O          0.1832642521       -4.7204752681       -1.7511733244
 H          0.2880357243       -4.1552006895       -2.5309193876
 H         -0.6856592523       -4.4896600489       -1.3785619279
 O          0.4101157688        2.9002943048       -5.0435178518
 H          0.1482180243        3.4468255133       -4.2874258882
 H          1.3412569932        3.1016345895       -5.2158670989
 O          2.6127321619       -5.5354845933       -0.4780369949
 H          1.7842449751       -5.4711678567       -0.9697625204
 H          3.3172525573       -5.2456240518       -1.0737103595
 O         -1.8308523876        1.0711242371        5.8139277709
 H         -0.9850285113        0.8368099241        5.4118228136
 H         -2.4455318968        0.3407240013        5.5992939728
 O          3.1411571781        2.7780155736       -4.9044799857
 H          3.9581390094        3.1083709574       -4.5211598744
 H          3.3264911416        1.9036179075       -5.2678336604
 O          9.0572558492       -0.3682029511        0.1414755290
 H          9.7565458653       -0.9572369385       -0.1445683758
 H          8.4253371145       -0.9125429553        0.6475705865
 O         -1.6212625444        0.7982292635       -5.3052284871
 H         -1.1042899546        1.6060192470       -5.4116405736
 H         -2.5527613899        1.0618443865       -5.3207413028
 O         -4.2239973239       -3.0481249208       -3.6052774511
 H         -4.4219146640       -3.4931916853       -2.7549448496
 H         -3.6198406824       -3.6496511565       -4.0665155601
 O         -7.9146875454       -0.5252765987        1.7414677935
 H         -7.7449176909       -0.3945957571        2.6790336125
 H         -8.5212522493        0.1713102564        1.4369966051
 O         -4.2150839918        1.6457721098       -4.6280878141
 H         -4.1689449193        1.1575899736       -3.7810403462
 H         -3.9949146481        2.5586964929       -4.4106019901
 O         -5.9034712507        4.9728246901        0.1849970695
 H         -5.1145782711        5.2740776410        0.6548411745
 H         -6.3840228368        4.3872529437        0.8001955099
 O          2.8129451111       -0.4539255540        5.3609983936
 H          1.9469611235       -0.0410094247        5.3151322064
 H          3.3448355796       -0.0804659961        4.6358689696
 O         -9.0912952707       -0.7131895637       -1.4388526251
 H         -8.4547249592       -0.0277488480       -1.6797157512
 H         -9.3784680742       -1.1170643938       -2.2581162434
 O          4.1609985304        4.0796029716        3.7666974848
 H          4.7978124179        3.6893628088        4.3646474047
 H          3.3882897685        3.4846968533        3.7466329323
 O         -2.0125767872       -4.5955308776       -4.0801874172
 H         -1.2342348038       -4.0178267655       -4.1330458779
 H         -1.7593995281       -5.3429184382       -3.5367938397
 O         -6.9074657922        0.9813243923       -4.2980207008
 H         -6.8223098088        0.0233784634       -4.2079968197
 H         -6.0502533027        1.2972817884       -4.6337072088
 O         -1.9335299899        5.2534452123       -0.9750189598
 H         -2.5625228789        5.3988955650       -0.2297672039
 H         -1.2909119136        5.9659899118       -0.9628835996
 O          9.2880838758        1.5324339477        2.1451450360
 H          9.4245227666        0.9223027101        1.4014855436
 H          9.4830909063        2.4150388503        1.8275995194
