  86

 H          0.4630927076        1.1941025328        0.8323452958
 C          0.5529035761        0.5095402430       -0.0251092077
 H          0.4633421182        1.0989800596       -0.9466436098
 C         -0.5779259333       -0.5149488604        0.0205351875
 H         -0.4518492549       -1.1270258237        0.9278134321
 H         -0.4840892691       -1.1748678656       -0.8448928485
 N         -1.8603253885        0.1647702476       -0.0623309409
 H         -2.6131021663       -0.5138473280       -0.0751527666
 H         -1.9956541839        0.7570092262        0.7508171931
 O          1.7808081027       -0.1833448059        0.0209869107
 H          2.5006908392        0.4507195084       -0.0567171281
 O          3.9299611766        1.3100141944       -0.4342334321
 H          4.2221606018        0.7683672008       -1.2064013259
 H          4.3758781019        0.8957619521        0.3206119842
 O          4.1007506624       -2.7142654454       -0.8263938666
 H          3.1388640562       -2.7486242567       -1.0764309078
 H          4.4643641369       -3.5810283567       -1.0051825423
 O          1.5949795146       -2.4507768846       -1.5564024192
 H          1.7714155938       -2.0175982647       -2.4301659458
 H          1.5331262468       -1.7014155352       -0.9377040289
 O         -1.8605559482        1.4977544382       -2.3635363924
 H         -1.8505914527        0.9901873421       -1.4966471258
 H         -2.7572850887        1.8449890848       -2.4332374134
 O         -0.6808402255        3.5629777888       -0.9771400195
 H          0.2775910480        3.4541121024       -1.0248664779
 H         -1.0595909672        2.9399411006       -1.6264845501
 O         -2.4302362482        2.9966973514        0.9538832016
 H         -2.7951169106        3.8415009949        1.2233507735
 H         -1.7041942630        3.2099838878        0.3222011949
 O         -4.3339010385        2.0446759747       -0.9026734812
 H         -3.6433399554        2.2931969486       -0.2653289670
 H         -4.3454162628        1.0733095633       -0.9503958107
 O         -2.7101476780       -1.3074808050       -2.9072319709
 H         -2.1333441495       -2.0294319930       -2.5810125231
 H         -2.1554406033       -0.5267150175       -3.0221770337
 O          2.2517767435       -0.9547865809       -3.6230266692
 H          3.1446116379       -0.6501374204       -3.4226249645
 H          1.6919794288       -0.1569072107       -3.6610885607
 O          2.0749624680        3.0099331385       -1.5695008410
 H          2.5470626805        3.7533131887       -1.9477838170
 H          2.7405543449        2.4750518351       -1.1012712312
 O          4.7738955758       -0.4571672460       -2.2521613396
 H          4.5301645810       -1.2895094156       -1.8013926805
 H          5.7067232012       -0.3349033981       -2.0320977113
 O         -4.5449007097       -0.7129710933       -1.1615636405
 H         -5.4213852106       -0.9191278136       -1.4891141761
 H         -3.8922128197       -0.9794456676       -1.8703956769
 O          0.7739911379        1.3497046852       -3.4661819326
 H          1.2210591892        1.9807449847       -2.8819146989
 H         -0.1696037032        1.3987171953       -3.2642302978
 O          4.6469137774       -0.8607316904        1.1930008378
 H          4.4283671185       -1.5635911180        0.5569612675
 H          3.9981700440       -0.9606175480        1.9038451908
 O         -1.1419153885       -3.1988615337       -1.7335504873
 H         -0.1724793254       -3.1430913498       -1.7250393230
 H         -1.4239551398       -3.3088507483       -0.8122217067
 O         -4.1806345844       -1.5882030683        1.3601531055
 H         -3.9302436567       -0.7728881419        1.8368225165
 H         -4.3343115200       -1.3189072361        0.4305229094
 O         -2.1282626967       -3.3232194032        0.9352936752
 H         -2.8513085771       -2.6973231544        1.1627512127
 H         -2.4755341830       -4.1988014662        1.1103807924
 O         -3.7068274915        0.9323728386        2.3931023131
 H         -3.1557381303        1.6741715493        2.1089353430
 H         -4.6214203748        1.2222524989        2.1573995841
 O          2.1374070674       -1.1849585512        2.5248523346
 H          1.4565684765       -1.8576029476        2.7288895263
 H          1.9660319971       -0.9347409162        1.5967978065
 O         -0.1216757269       -2.6654408309        2.8407402936
 H         -0.6620207231       -1.9813539500        3.2765688291
 H         -0.6873188512       -3.0183076811        2.1389414490
 O          0.7752602285        0.9918314414        3.3639544579
 H          1.3321062351        0.2157185618        3.1220355674
 H          1.0801150422        1.2788842415        4.2246953594
 O         -1.5467316380       -0.4679220354        3.6518015943
 H         -0.8125200789        0.1646449975        3.5471327155
 H         -2.3499734300       -0.0075920634        3.3826189038
 O          6.8792975439       -0.3568025989       -0.4529736783
 H          6.2256367028       -0.5157714686        0.2446376457
 H          7.7384692832       -0.5214706473       -0.0661390494
 O         -6.0047840062        1.6999438701        1.3014083384
 H         -6.4553341102        0.8545483278        1.1349484234
 H         -5.6388349515        1.9845956315        0.4454283764
 O         -6.8707056216       -0.9256912942        1.1510623293
 H         -6.0092151616       -1.3233604973        1.3739965152
 H         -7.4541564575       -1.1037834731        1.8880060267
