  192

 H         -0.5425054112       -1.1597996585        0.9180873603
 C         -0.6112510051       -0.5412956740        0.0100749182
 H         -0.5391308395       -1.1969144470       -0.8712436601
 C          0.5103658647        0.5037878336       -0.0094871839
 H          0.3911098456        1.1518924073        0.8600966291
 H          0.3944399221        1.1152669956       -0.9056411631
 O         -1.7891825170        0.2100258093       -0.0077307040
 H         -2.5646581753       -0.3620747641        0.0026734602
 N          1.8637421187       -0.1172780949        0.0059475210
 H          1.9871272141       -0.7237037740       -0.8163106221
 H          1.9839787968       -0.6890763207        0.8531041602
 H          2.5930828886        0.6072400317       -0.0077051379
 O          2.3026668985        3.5034703620       -1.2397191185
 H          2.8292481522        2.9091357436       -0.6639466253
 H          1.5076940382        3.7256003513       -0.7304652041
 O          2.2935519289       -1.6836542492        2.1136770842
 H          2.3060729849       -2.6361644632        1.8693413831
 H          1.7644044263       -1.5762501875        2.9385874108
 O          1.8776201075       -0.8894046111       -2.5632682801
 H          1.7485225960        0.0444328957       -2.8196679397
 H          1.3016467471       -1.4234415152       -3.1468326888
 O         -4.6089836816        0.4298360999       -2.1820119702
 H         -4.2357596105        0.1927617781       -1.3207945640
 H         -4.4022542660       -0.3024759643       -2.8037275324
 O         -1.1778691125        0.0519174861       -4.5041382011
 H         -1.1174831255        0.7056479838       -3.7822419810
 H         -1.9992202027        0.2863992237       -4.9756903512
 O          0.0946616917        3.9951415692        0.3558197883
 H         -0.7864104150        3.5585298985        0.3445297419
 H         -0.0811703228        4.9346080154        0.2918048377
 O         -2.2582358116        2.8248089643        0.7455577203
 H         -2.2694695450        1.8782621377        0.5173509617
 H         -3.1394587213        3.1873504861        0.5530651272
 O          2.6469392945       -4.1555763243        1.2694334428
 H          3.5298999188       -4.1973957419        1.6666853458
 H          2.7902541790       -3.9519782365        0.3162646465
 O          1.5982600784        1.7431208062       -3.0985794728
 H          0.6364633016        1.8136617760       -3.1407581621
 H          1.8775403199        2.4592644047       -2.4813907228
 O          3.6898476199        1.8171715279        0.2881303310
 H          3.6559292739        2.2543674216        1.1613002967
 H          4.6310359389        1.5907848684        0.1296043675
 O          2.0966548071        1.0640100976        4.6810094247
 H          1.6260937709        1.6221618909        4.0502992418
 H          3.0200181620        1.0132777033        4.3871127163
 O         -1.1615777599        1.6920674575       -2.3717862894
 H         -1.5571679649        1.2254697948       -1.6191517693
 H         -1.4690135792        2.6205224965       -2.3186156969
 O         -4.6155447598        3.1228455415       -2.2113037450
 H         -4.7310265445        3.4135055699       -1.2855724862
 H         -4.5339552937        2.1491186599       -2.1772285678
 O         -1.8235283874       -2.0093548155       -2.9175065706
 H         -1.5135992953       -1.2813791580       -3.5001100185
 H         -1.0298678725       -2.5038760866       -2.6598222859
 O          4.6216023089       -0.5934592195        1.4934812862
 H          4.5102945355       -0.5536305229        0.5173574685
 H          3.8695389553       -1.1157595839        1.8353579788
 O          0.8593207713        2.8792384179        2.7691006063
 H          0.6506906914        3.2880648675        1.9095728423
 H          0.0345427995        2.9127475373        3.2705796767
 O         -3.4244437105       -1.8064697810       -0.7792211777
 H         -2.8384779931       -1.8413396136       -1.5644313039
 H         -3.1491406370       -2.5874905688       -0.2458630713
 O          0.8521513574       -1.2269133473        4.2655891844
 H          0.1620787513       -0.7181090532        3.7651104034
 H          1.3585917260       -0.5023365458        4.6899827197
 O         -0.1030212499       -3.7281170488        1.2411510645
 H          0.7587054763       -4.1635406581        1.2976617378
 H         -0.3750856175       -3.5542365713        2.1576029156
 O         -4.2982182698        0.7173124084        0.5793926173
 H         -4.0296947106        0.7472060529        1.5206088675
 H         -5.1264184328        1.2384752248        0.5680797215
 O         -1.9096305099        2.5614988531        3.4076470489
 H         -2.7399835372        2.1738687524        3.7132935789
 H         -2.0634683620        2.7764414254        2.4642391496
 O         -6.5495488281        2.0702984350        1.0606899815
 H         -6.6900669725        1.5139173162        1.8553356915
 H         -7.2980064167        1.8759249234        0.4520329129
 O          4.2743651409       -0.8807153989       -1.1094225124
 H          5.1047135565       -1.3789167592       -1.2930072341
 H          4.2765856703       -0.1305484475       -1.7349118217
 O         -0.8972389797        0.1202566035        2.8750841627
 H         -1.1890677226        1.0023913133        3.1741630660
 H         -1.6955461575       -0.4050339242        2.7452839066
 O          2.9326512685       -3.2734520818       -1.2232448519
 H          3.5472709285       -3.7185460733       -1.8543176762
 H          3.2833652041       -2.3653638844       -1.1835555274
 O          4.4150138021        1.1597682449       -2.9087849491
 H          4.7009527050        1.9993092471       -2.4728804533
 H          3.5369694199        1.3442256737       -3.2630132194
 O          6.2547911661        1.1337602268       -0.1266130388
 H          6.9330268921        0.8279701206        0.4920012938
 H          6.5818969753        0.9212851247       -1.0121905882
 O          6.8430313219       -1.9875715067        1.2405581856
 H          7.5863244315       -1.4214807222        1.4947514125
 H          6.0557536868       -1.4021472199        1.3604200941
 O          0.2403739283       -3.2875126090       -1.5163856382
 H          1.2122493877       -3.3233247969       -1.6035639812
 H          0.0686011170       -3.4004332210       -0.5702627107
 O         -5.8955716547       -1.4278892232        0.8365076809
 H         -5.0909008087       -0.8883763963        0.7014211724
 H         -6.4695916393       -1.2162535567        0.0736519502
 O         -6.9742410885       -0.7764506828       -1.5551323481
 H         -6.7513078201       -1.6719828682       -1.8672199772
 H         -6.2340403666       -0.2107410791       -1.8530241657
 O         -3.0218884074       -1.7542505066        2.7936144772
 H         -3.8445311193       -2.2701824980        2.9448838942
 H         -2.3195020405       -2.3222356585        3.1450761336
 O          6.5817038160       -2.1400812310       -1.4423015484
 H          6.8339069677       -2.1778191498       -0.4955343598
 H          7.0907100818       -1.4341491156       -1.8581967764
 O         -4.0354331399        0.7160684115        3.2692469449
 H         -3.6867237911       -0.1954594608        3.2898151954
 H         -4.9838030281        0.6337925043        3.4373391394
 O          5.0889887743       -3.6325574850        2.5154255022
 H          5.5313847413       -4.3655332272        2.9410546472
 H          5.7807724902       -3.1503900093        2.0189815842
 O          6.9977861809        2.1852364776        2.8728318987
 H          6.6298323706        2.7021327215        2.1371450048
 H          6.2411354813        1.7699062891        3.3204366601
 O          4.6993824914        0.8816561586        3.6783692116
 H          4.6837775350        0.4747911453        2.7824267817
 H          4.8109253981        0.1037379314        4.2510271108
 O          7.0377239985        0.3672825589       -2.6857497503
 H          7.6496726758        0.9207194876       -3.1714222955
 H          6.1449071579        0.5968858034       -2.9923993918
 O          5.1344382460        3.4536965779       -1.7652667824
 H          5.4789738076        3.4226110323       -0.8586850279
 H          4.2897356155        3.9154319218       -1.7225768334
 O         -4.3341237469       -1.6332545253       -3.8938138291
 H         -3.4366866332       -1.9661601187       -3.7276746634
 H         -4.9344141198       -2.2911792610       -3.5147677025
 O          3.5727103159        3.1843795293        2.6135559315
 H          3.9670123991        2.5735819684        3.2528269391
 H          2.6204219718        3.2226982826        2.8058185708
 O         -6.7399436421        0.0924424008        2.8920817351
 H         -7.7066796975        0.0735959046        2.8405098020
 H         -6.4524292443       -0.5673587141        2.2227331181
 O         -2.6605151452       -4.1214577806        0.2207692201
 H         -1.8185068404       -4.0828596955        0.6980716281
 H         -2.4587851672       -4.5900794033       -0.6151882510
 O         -5.5605234097       -3.0572998734       -1.9106221129
 H         -5.7980387840       -3.8110237974       -1.3594821600
 H         -4.8189357287       -2.6159556215       -1.4371170041
 O          4.8508019254       -3.8427405481       -2.9228366201
 H          5.6233362642       -3.4896023282       -2.4624524919
 H          4.5985562093       -3.1593412409       -3.5689627030
 O          3.9665914104       -1.5603889479       -4.1880257580
 H          3.2676423137       -1.3628603621       -3.5326011769
 H          4.5044264913       -0.7696997160       -4.2473797184
 O         -2.1366664723        4.1695726317       -2.2715995283
 H         -3.0769737217        3.8916572187       -2.3184993185
 H         -1.9843044245        4.7556589541       -3.0126098262
 O         -1.7508276967       -5.0456775766       -2.1328355269
 H         -0.9006291081       -4.5758994015       -2.0482064551
 H         -2.0855748526       -4.8527846673       -3.0089585777
 O         -4.7736582100        3.8915085983        0.3834793355
 H         -5.0154785348        4.7840678586        0.6297096916
 H         -5.4781659967        3.2986462199        0.7306282631
 O         -5.3877377249       -4.1059902046        0.7796522722
 H         -4.4363419465       -4.2449190062        0.6567473013
 H         -5.5399408434       -3.1416443995        0.7416183337
 O         -8.4324939752        1.3431606886       -0.6743219242
 H         -8.2483185679        1.9793468136       -1.3885150824
 H         -8.0990223219        0.4959452337       -1.0147762746
 O          8.3050185310        0.2886456629        1.6157534918
 H          9.2363833614        0.5008371776        1.5631228586
 H          7.8990552245        0.9687284559        2.2127813470
 O         -9.1738535816        0.0247819020        1.6713867133
 H         -9.7385190276       -0.7036820605        1.4129557242
 H         -9.1257475765        0.6171834237        0.9075541167
 O         -3.6994996940        0.7427450023       -5.1926523141
 H         -4.1129179315       -0.1131638017       -5.0116857915
 H         -4.0650818662        1.3654471990       -4.5597826443
 O          0.5835578195       -2.0740183689       -4.5630048481
 H          0.0657527976       -1.3214018242       -4.8867473312
 H          1.2905473294       -2.2399579320       -5.1884744833
 O          4.3614055030       -1.7056760454        4.4431345518
 H          3.4693753584       -1.8947824988        4.7389135034
 H          4.5862846136       -2.3773054989        3.7777819917
 O          5.6992731921        3.8806074567        1.0182551007
 H          4.9075868654        3.8726511754        1.5811467391
 H          6.1163404398        4.7347605779        1.1270186013
 O         -0.8830853932       -3.2345986643        3.8293419462
 H         -1.0999447915       -3.8514732527        4.5279712074
 H         -0.2332275971       -2.5985147482        4.1834507946
 O         -5.2018668301       -3.2018375900        3.3347878986
 H         -6.0155829556       -2.7219810680        3.4970916717
 H         -5.3552888169       -3.7478473977        2.5367274841
 O         -7.2830791035        2.6849770992       -2.7312250871
 H         -6.3652535627        2.9903796558       -2.6204929030
 H         -7.3114989914        2.1870644532       -3.5486012144
