  146

 H          0.4630927076        1.1941025328        0.8323452958
 C          0.5529035761        0.5095402429       -0.0251092077
 H          0.4633421181        1.0989800596       -0.9466436096
 C         -0.5779259333       -0.5149488604        0.0205351875
 H         -0.4518492549       -1.1270258237        0.9278134319
 H         -0.4840892691       -1.1748678656       -0.8448928486
 N         -1.8603253885        0.1647702476       -0.0623309410
 H         -2.6131021662       -0.5138473280       -0.0751527665
 H         -1.9956541839        0.7570092262        0.7508171933
 O          1.7808081027       -0.1833448059        0.0209869107
 H          2.5006908393        0.4507195084       -0.0567171281
 O         -1.7496176013        1.0079090616       -2.5256789224
 H         -0.8486576603        0.8216903790       -2.8319897450
 H         -1.7939152554        0.7584959920       -1.5433463110
 O          4.3905865597       -0.4653116630       -0.7530374288
 H          4.5981839458       -0.2677521587        0.1942479640
 H          4.4099478325       -1.4347119423       -0.8131166799
 O          2.9333753043        2.1882212354       -0.4228412472
 H          3.8205997307        2.5095227351       -0.6257641426
 H          2.6924578650        2.5992564328        0.4405672717
 O         -3.1005823995        2.8076002565        0.3267851533
 H         -3.8365505921        3.4651163417        0.3710505278
 H         -2.4347498687        3.1934657594       -0.2573559923
 O         -4.7073697294        1.3889531588        2.0645876671
 H         -4.0077994295        1.7618880725        1.5065816045
 H         -5.5380985102        1.5326631390        1.5552606832
 O          4.9435719740        0.0544821971        1.7598126801
 H          4.1852727176       -0.2425121501        2.2863098669
 H          5.0253977521        1.0261472590        1.8863294796
 O         -1.3026338629        1.6265822452        2.5373481997
 H         -1.9102483957        2.2325219796        3.0086133669
 H         -1.5214366559        0.7318787704        2.8888483722
 O          1.6685669003       -2.4454034775       -1.5303034764
 H          2.4615000467       -2.5637099700       -2.0916294689
 H          1.7939363391       -1.6068762664       -1.0463391785
 O          1.3398027880        3.0817918021       -2.4316589942
 H          1.1200332782        2.2785366748       -2.9215818427
 H          1.8455804499        2.7862091658       -1.6437497413
 O          2.3001992304        3.2692692994        1.9154494081
 H          1.4604286602        3.6829582071        1.6357010138
 H          2.0468868812        2.6561931695        2.6268481786
 O         -0.1865948669        3.7768533213        1.0120649118
 H         -0.4994547837        3.8294806387        0.1010468516
 H         -0.7172772248        3.1007309184        1.4540856030
 O          1.1872196835        1.3764280436        3.5481296531
 H          0.9705969518        0.9774214128        4.4130503200
 H          0.3051025773        1.5425935000        3.1461727918
 O         -1.2600393300        3.5418689315       -1.6832551656
 H         -0.3434260621        3.6736309928       -1.9868072913
 H         -1.5170526329        2.6811165520       -2.0751961267
 O         -4.1841052519       -1.2118430496        2.1348308843
 H         -4.3709968289       -0.2434769153        2.1866551351
 H         -4.2220123077       -1.4238232593        1.1911632903
 O         -1.8291160850       -0.8014316748        3.4755836340
 H         -1.1517400263       -1.4834524666        3.2774250062
 H         -2.6698254792       -1.1149939386        3.1037323513
 O          2.3969886772       -0.7907472809        2.5616940403
 H          2.0360591476        0.0136100150        3.0019880595
 H          2.1504980060       -0.6794447978        1.6195766630
 O          4.3730500945       -3.2011277185       -0.5950452628
 H          3.9818830692       -3.3131274097        0.3051010046
 H          4.0911189459       -3.9591343293       -1.1080330019
 O          0.2451724056       -2.4291807456        3.0331516434
 H          1.0487813250       -1.8793377914        2.9772395256
 H          0.2493727316       -2.9895863100        2.2386452809
 O          0.4676314841       -3.7035481926        0.5975953896
 H          0.9413486891       -3.3418207869       -0.1717642878
 H         -0.4601911406       -3.7154861630        0.3203299146
 O          0.8104703826        0.4035907266       -3.3419232400
 H          0.5112001020       -0.4852875952       -3.5938868435
 H          1.7884230887        0.3462735571       -3.3189700225
 O         -2.1061461077       -3.2159085388       -0.4207346718
 H         -2.3000926133       -2.7203410339       -1.2334317250
 H         -2.9464302938       -3.4551410413       -0.0285264591
 O         -2.6018507129       -1.6508337802       -2.7468393103
 H         -2.4292198667       -0.6912030823       -2.6836557919
 H         -1.8053823540       -2.0039867862       -3.1766171178
 O         -4.5752994062        1.2146793941       -1.2569089640
 H         -4.4697967643        1.4595120667       -2.2027660391
 H         -3.9357458824        1.7581691395       -0.7481492075
 O          3.5075119861        0.3051842365       -3.1831776233
 H          3.7147348406        0.1485722434       -2.2418084189
 H          3.7361033500        1.2508514632       -3.3525121187
 O         -4.5142132072       -1.3294870626       -0.6205314504
 H         -4.3241476015       -1.7988398657       -1.4367304366
 H         -4.5781360173       -0.3761219379       -0.8857655869
 O          5.4811321992        3.2259161852       -0.9646891010
 H          6.1161503990        3.9360412099       -1.0532233533
 H          5.9874279919        2.3697097699       -1.1474728834
 O         -6.7000589485        1.6476558153        0.2977512977
 H         -7.1121824336        0.7651108061        0.3546576919
 H         -6.0379294350        1.5468838031       -0.4176460333
 O          6.5866603618        0.9594017066       -1.4207657214
 H          7.1605591378        0.6479437895       -0.6772458488
 H          5.7779622636        0.4164099426       -1.3005405623
 O         -0.0328567522       -2.2249633864       -3.5475704295
 H          0.5299840291       -2.3884410050       -2.7492652123
 H          0.3006790831       -2.8063749577       -4.2314812075
 O         -4.0477219547        1.7799896891       -3.8061191123
 H         -3.1080987997        1.5956253120       -3.6614343860
 H         -4.4153756228        0.9459961590       -4.1765312678
 O         -7.1467159258       -1.0373184955        0.2328422357
 H         -7.2623358797       -1.3383844705        1.1543282629
 H         -6.2373504227       -1.2960108877        0.0030990133
 O          5.0470268172        2.7315097392        1.8102936661
 H          4.1829666599        3.1178718836        2.0076339628
 H          5.2803456660        3.0147037392        0.9138943599
 O          3.5612846612       -2.4627368539       -3.4349721885
 H          3.4480841381       -1.5181676943       -3.6188036971
 H          4.5128672420       -2.5913400929       -3.3821816931
 O          3.1096708830       -3.4512453050        1.7145970802
 H          2.2123644529       -3.7447784894        1.5102443792
 H          3.0312203521       -2.6215635640        2.2009358241
 O          7.5915241411       -0.3212122904        0.6339522691
 H          7.5362080570       -1.1701959599        0.1528327076
 H          6.8447310617       -0.3101571449        1.2461647098
 O          3.9849462008        2.9082366510       -3.3574595197
 H          4.5250408046        3.1524355714       -2.5896807408
 H          3.0988383503        3.2719875774       -3.2028979905
 O          6.9902270088       -2.4050122473       -1.0347206263
 H          6.8247908841       -2.0293390317       -1.9099099026
 H          6.1554818794       -2.8125331098       -0.7591554962
 O         -5.3019003198        4.2383085495        0.1993232442
 H         -6.0358933441        3.6152512026        0.2548898641
 H         -5.1213231896        4.3801401820       -0.7457310657
 O         -4.0799905017        4.1436506982       -2.2721112442
 H         -3.1257019646        4.2615991811       -2.1983177988
 H         -4.2192216947        3.4934096697       -2.9731890598
 O         -4.8301358967       -0.7225368403       -4.2566797045
 H         -4.1410644054       -1.2452223002       -3.8226530357
 H         -5.6212453828       -0.7710130383       -3.6964893040
 O         -6.9744996700       -0.4979460537       -2.5113513723
 H         -7.4323273415        0.3266637095       -2.6790130293
 H         -7.2426467598       -0.7865969967       -1.6276392245
 O          6.1243233133       -0.9512523608       -3.3985517987
 H          6.7232586821       -0.2794187405       -3.0473985156
 H          5.3078687701       -0.4687346546       -3.5910467505
 O         -6.7756193183       -1.6259454197        2.8417089343
 H         -5.8038003266       -1.6406130283        2.7304523249
 H         -6.9605298629       -0.9163103725        3.4580729442
 O         -3.2416097215        3.1920759165        3.5674637454
 H         -3.3724412455        3.9930407422        3.0560421784
 H         -3.9620212136        2.5889715080        3.3237253123
 O          0.1514792236       -0.2936785487        5.3730557278
 H          0.5377486412       -1.1635181032        5.2456873160
 H         -0.7308625973       -0.3465229631        4.9771237921
