  462

 H         -0.5425054112       -1.1597996582        0.9180873611
 C         -0.6112510050       -0.5412956741        0.0100749187
 H         -0.5391308395       -1.1969144471       -0.8712436589
 C          0.5103658646        0.5037878340       -0.0094871838
 H          0.3911098459        1.1518924071        0.8600966300
 H          0.3944399222        1.1152669957       -0.9056411625
 O         -1.7891825169        0.2100258091       -0.0077307034
 H         -2.5646581753       -0.3620747644        0.0026734610
 N          1.8637421185       -0.1172780950        0.0059475193
 H          1.9871272141       -0.7237037743       -0.8163106207
 H          1.9839787964       -0.6890763209        0.8531041585
 H          2.5930828888        0.6072400316       -0.0077051370
 O          2.4940061448       -0.8969620580        4.7820911680
 H          1.9371318140       -0.3238088720        5.3257154888
 H          3.4175929948       -0.7410441037        5.0628563509
 O          2.8911363479        2.3769665999        0.3697774227
 H          2.1198030894        2.8150574577        0.7718154700
 H          3.4416008020        3.0959056132        0.0145589777
 O          1.3213366920       -1.5901954444       -2.3421514192
 H          1.0054407079       -2.4937625465       -2.1814214225
 H          0.7053011142       -1.2430325979       -3.0133271884
 O         -1.3814363012       -2.1948096274       -3.0057868768
 H         -1.7736507559       -2.6187474013       -3.7858930697
 H         -1.6363718786       -1.2537128583       -3.0131944531
 O         -1.4716069850        2.9451405638        0.5263429852
 H         -1.8586784078        2.1504690162        0.1356524326
 H         -1.0976208940        2.6342932305        1.3759747532
 O          1.5452735502        2.0383662682        4.2131394232
 H          2.2341015354        2.6466998909        4.5590588654
 H          1.1554543887        1.6035245695        4.9847119637
 O          4.7394950812        0.4287212434        0.0549083357
 H          5.5057418821        0.1448929070        0.5894940510
 H          4.4796932272       -0.3768404191       -0.4408920409
 O         -1.0378994345        1.7288304993        2.8326101792
 H         -1.0102306614        2.1537895808        3.7162969071
 H         -1.9731054871        1.4955466153        2.6777399727
 O         -1.6761279875        0.4838323082       -2.8473433559
 H         -1.8762341676        0.5753976365       -1.9057122192
 H         -0.7483438097        0.7739986229       -2.9732390472
 O         -3.5677431563       -1.0011527062       -1.6408890792
 H         -4.1044370882       -1.7393270300       -1.3052240234
 H         -3.8193775289       -0.8976806068       -2.5718713975
 O          0.6031828252        3.6155233909       -1.0157348030
 H         -0.0918781225        3.4967013515       -0.3374961702
 H          0.1345373243        3.5307360253       -1.8644662098
 O          4.0315064628       -1.5841517586       -1.4574089605
 H          3.5248953154       -2.2883447256       -1.0018149109
 H          4.8772701423       -2.0011884398       -1.7237222951
 O          1.6808770523       -1.7237194947        2.2275575834
 H          1.9955905846       -1.2748028868        3.0262399508
 H          1.5041518784       -2.6410476036        2.4854931261
 O         -0.5721565419        5.5052534671        1.6113513821
 H         -1.0532206235        5.7951810178        2.4185206582
 H         -1.0950676237        5.7687684386        0.8290495088
 O          3.3339584664        0.5668200072       -2.8306265462
 H          3.5766416247       -0.2471938660       -2.3500538565
 H          3.7481921006        0.4821790714       -3.7101425645
 O          1.1692082039        3.5503833736        2.0007697240
 H          0.4797333091        4.2380363766        1.9115510031
 H          1.0030852956        3.0600153513        2.8222296592
 O         -2.1706631641       -3.5632584827       -0.9602359581
 H         -1.9514449151       -3.0247802186       -1.7625596973
 H         -1.3100972509       -3.7482968421       -0.5383796925
 O         -3.1829268965       -2.2737264735        1.0600350657
 H         -3.5084506377       -3.0676566020        1.5288093629
 H         -2.8452138852       -2.6461959478        0.2069502763
 O         -5.0606083834       -0.3815726090        0.6829871150
 H         -5.9480553859       -0.6555274036        0.9797169276
 H         -4.4746247410       -1.1554628480        0.8019050804
 O          3.1882817905       -2.1372207031       -4.2061310859
 H          2.5973530327       -1.8052913864       -3.4947252012
 H          3.7453714912       -2.8119148192       -3.7407777350
 O          2.6261085503       -3.4122993396       -0.1610754745
 H          3.0337188606       -3.7723284206        0.6539954474
 H          2.6239003833       -4.1517849323       -0.7889234310
 O         -0.3062348881       -0.5603041575        4.0310775390
 H         -0.3076447161        0.2968748520        3.5636837632
 H         -0.1722089275       -1.2469743158        3.3505003490
 O          0.0722979955       -3.8164210982        0.4354878758
 H         -0.2130549386       -3.4249666503        1.2894499683
 H          0.9663806425       -3.4764436867        0.2359802908
 O         -1.0099451299       -2.6674465762        2.5425592391
 H         -1.2846520085       -3.2245603674        3.2898858992
 H         -1.8332444416       -2.4235201573        2.0702190018
 O         -3.6425555612        0.9797002034        2.5181275311
 H         -4.1920328814        0.6706625436        1.7677434331
 H         -3.3969661784        0.1708348393        3.0101414484
 O          6.5783566776       -0.4707902065       -3.6175803438
 H          6.4708506839        0.1803177483       -2.8934769760
 H          7.5010758441       -0.3331822978       -3.9218904228
 O         -3.9454729720        1.5878447519       -1.2669889353
 H         -4.6102988913        1.7131597011       -1.9756958362
 H         -3.8011533095        0.6172264316       -1.2591083512
 O         -5.1246362332       -2.2010600582        3.0679316088
 H         -5.7200091519       -1.4142497604        3.0467077118
 H         -4.2286803574       -1.8672140587        3.2107925541
 O          5.3967901143       -3.1001636589        0.7754075560
 H          5.8146642073       -3.7617193264        1.3545169289
 H          5.1386851573       -2.3627960447        1.3645556335
 O         -6.3215471961       -0.4992620155       -1.7998012325
 H         -5.7963553879       -0.3271150216       -0.9964784223
 H         -7.2402466124       -0.3150159674       -1.5573139576
 O         -3.7726105636       -5.5989670794       -0.2918598145
 H         -3.2539073884       -4.8050601719       -0.5397651095
 H         -4.2067341360       -5.8612938305       -1.1210673512
 O         -2.8979065247       -1.0420584857        4.1056198201
 H         -3.3492999419       -0.7171537507        4.9194539165
 H         -1.9371421631       -0.8165270982        4.1751731220
 O         -5.8643879163        1.7626252709       -3.0948184700
 H         -6.1356144430        0.8794420281       -2.7483988608
 H         -5.7124545910        1.6570907848       -4.0522211123
 O          4.4938034734       -0.0595495955       -5.1742594065
 H          5.3686303711       -0.1792039312       -4.7362382537
 H          4.0249580472       -0.9066232841       -4.9898070486
 O          0.7727429479        1.3478331371       -3.0404807208
 H          1.6275605997        0.8823071509       -3.0211818386
 H          0.8292517575        2.0199136348       -3.7278090162
 O          6.2833607112        1.5273678561       -1.7916081550
 H          5.9769154806        2.3448552928       -2.2334517270
 H          5.5724798491        1.2057939473       -1.1900860051
 O          3.0334670028        0.6837837562        2.5000753485
 H          2.4730850392        1.0626591718        3.2019552515
 H          3.0540998768        1.3370053501        1.7897391841
 O          4.8348767736       -5.5812125377       -0.5058940059
 H          5.5958753433       -5.7458191272       -1.0758502314
 H          4.9024578441       -4.6402048396       -0.2826639866
 O         -4.3983009656       -0.8625106742       -4.2269381356
 H         -3.6980852020       -0.7706191802       -4.9033506867
 H         -5.2361483195       -0.5219668719       -4.5727714881
 O         -3.3563817275        4.1292252266        2.0661375780
 H         -3.6054816098        5.0427458268        1.7921260990
 H         -2.5948784000        3.8765075289        1.5103992729
 O          3.6020088533        4.6130137835        2.3880487707
 H          3.8333147109        4.7723242410        1.4454008035
 H          2.6875814583        4.2488014488        2.3414376707
 O          0.2247477771       -1.0461247656       -4.8219383184
 H          0.4612282881       -1.9617262768       -5.0620131552
 H          0.8590187982       -0.4518722034       -5.2554207383
 O         -6.6597866430       -0.1097851229        3.3827049272
 H         -6.2652075210        0.5433802324        3.9814078596
 H         -6.9514703875        0.4077434319        2.5846370653
 O         -5.1718398603        1.8622539576        4.5520561360
 H         -4.6179752917        1.6863419782        3.7583453527
 H         -5.8955202514        2.4531666273        4.2479684151
 O         -5.1928417225        2.8409399464        0.6962633919
 H         -4.5365836938        3.1929480674        1.3368411510
 H         -4.7107310577        2.2757173206        0.0573430659
 O         -7.3164740921        1.3625760549        1.3389976086
 H         -8.0489406017        1.8789911111        1.7210977816
 H         -6.5771380921        1.9743762856        1.1714458667
 O          0.4791567186       -4.2280485718       -2.4195734548
 H          1.0552004156       -4.8906929557       -2.0101443493
 H         -0.3834925516       -4.6429077864       -2.5733190356
 O          4.4620837145       -4.0425676966       -2.9675339517
 H          5.3565364356       -3.9785548665       -3.3284601426
 H          4.0151609121       -4.7953910973       -3.4035124678
 O          6.4795296230       -2.5682813947       -1.5448621177
 H          6.2265823043       -2.7258341141       -0.6083975925
 H          7.1245558212       -1.8378226807       -1.5497149991
 O          4.7338957653       -1.3247654650        2.6378673117
 H          4.0150758159       -0.6641841389        2.5581299996
 H          4.4263592695       -2.0352021969        3.2255201867
 O         -2.7855120662        1.8202399125       -4.7908679816
 H         -2.0991626647        1.6955744943       -5.4628100275
 H         -2.4797531448        1.3113938569       -4.0044805322
 O         -5.2075252313       -2.9673135133       -0.9238361265
 H         -5.3947372694       -3.4808416612       -0.1096189480
 H         -6.0396798894       -2.5046883311       -1.1203549764
 O         -2.2460422477       -1.0345689704       -5.8733606724
 H         -1.4043278054       -0.9625427159       -5.3695381874
 H         -2.3765357066       -1.9814937291       -5.9934821455
 O         -0.8704888081        3.7306022618       -3.2334779515
 H         -1.0000677819        3.7701660384       -4.2026490655
 H         -1.7557089514        3.7716371058       -2.8192308878
 O          4.1900755936        4.6597798794       -0.1832739324
 H          3.5171627087        5.2061096455       -0.6320871843
 H          5.0846225092        4.9573578771       -0.4650733323
 O          2.9466562761        3.1077091768       -2.2791946015
 H          3.1450296438        2.1509228051       -2.3060419324
 H          2.1597063428        3.2046524924       -1.7167829539
 O         -1.0965578902       -5.7754259533        2.9905755189
 H         -1.9033985096       -5.3343111851        2.6314659852
 H         -1.3216283092       -6.0089486520        3.8915470042
 O         -3.4065688564       -4.6610595347        2.2346184465
 H         -3.9600298816       -4.8099302018        3.0285757906
 H         -3.7873652064       -5.1684116363        1.5025623548
 O         -7.6321498692       -1.2782562674        0.9256074207
 H         -7.8948182273       -0.4761597078        0.4384774646
 H         -7.7568703901       -2.0142016173        0.3093485597
 O          2.0446551570       -3.3945215174        5.5164794069
 H          2.1995133510       -2.4576454274        5.2512789155
 H          1.6347843685       -3.8105560667        4.7313478670
 O          7.0434221989       -0.2353329257        1.1652338569
 H          7.1673740201       -1.1133957165        1.5875552274
 H          7.5492931621        0.4015608994        1.6989794038
 O         -6.0698633361       -4.0723348224        1.3420329121
 H         -5.6804904369       -3.4754427423        2.0050565461
 H         -7.0246825299       -4.0146101083        1.5066701413
 O          1.1715638120       -4.2964336882        3.1457922373
 H          1.8861205599       -4.7665548890        2.6897956027
 H          0.3623837397       -4.8365055639        3.0702549657
 O          4.3541137292       -3.5867472734        4.1212679160
 H          5.1927851716       -3.4606698822        4.5815221546
 H          3.6440723551       -3.6573568298        4.7880360588
 O          3.4886542469       -4.9281666349        1.9167492136
 H          3.9564893195       -4.5116787052        2.6627239565
 H          4.1162478447       -5.5286701289        1.5014524333
 O         -7.8970534013       -3.0204666717       -1.2104376194
 H         -7.6381958109       -3.9643716005       -1.1659613881
 H         -7.9381657591       -2.7959525520       -2.1633505866
 O          5.3369794472        2.5003337269        1.8597861096
 H          4.7721803381        3.2241948980        2.1808666374
 H          4.7982915637        1.9491425444        1.2717228298
 O          0.4163435525       -6.4029288249        0.6793211564
 H          0.0345082117       -6.6246992822        1.5347592157
 H          0.2805279823       -5.4249030971        0.5937067114
 O         -3.3365755100        3.9201491550        4.7249147784
 H         -3.3444644113        3.9876046289        3.7444210547
 H         -4.0819235684        3.3395213550        4.9426625333
 O         -3.0808784377        4.0258316392       -1.7967845953
 H         -3.9121724666        4.3176727952       -2.2140858173
 H         -3.2478578989        3.1218313974       -1.4717030947
 O          8.7751971101        1.6704423148        2.0818137900
 H          8.3458415411        2.1435116470        1.3288605499
 H          8.5113914555        2.2091970585        2.8643341376
 O          1.1350425733       -3.6497682901       -4.9821789416
 H          1.9801485979       -3.1693994919       -4.8653613527
 H          0.7926039149       -3.7948456054       -4.0782422409
 O          1.8510180007        0.7814856832       -6.0218215248
 H          1.9411666202        1.6562126521       -5.5962752545
 H          2.7451558567        0.4421914856       -6.1280427295
 O          2.0936932574        3.1552313097       -4.7735607460
 H          2.4339478225        3.2401100885       -3.8499872722
 H          1.6970574728        4.0278780540       -4.9744212791
 O         -5.4837700667        4.3957063870       -3.0045237873
 H         -5.6717141583        3.4365698031       -2.9662499338
 H         -4.9878586071        4.5343135012       -3.8348476123
 O         -5.0054692836       -3.3553772332       -3.5628964282
 H         -4.8290587185       -2.4253387372       -3.8374032577
 H         -4.9890385458       -3.3175555189       -2.5826376953
 O         -2.6055440091       -3.7185207720       -4.8784714190
 H         -2.1929934787       -4.5014037472       -4.4929267639
 H         -3.5059379603       -3.6863117132       -4.5116638674
 O          7.8680235090       -2.4719880785        2.2651244418
 H          8.0998290362       -3.1636022078        1.6135992485
 H          8.6954514123       -1.9964540237        2.4849404768
 O         -8.6073206624        0.5541040535       -0.9261710145
 H         -8.3919969531        1.4386706385       -0.5820790485
 H         -9.5100016072        0.3091337252       -0.6069280023
 O         -9.5791392423        2.2624898715        2.4821664297
 H         -9.7482896764        1.3238128744        2.6785750677
 H        -10.1434035109        2.4789964908        1.7210237355
 O         -1.1721833958        2.5790854556        5.3492627642
 H         -1.4286648738        1.8371863632        5.9110060417
 H         -1.9818459885        3.1329463281        5.2230966811
 O          7.3821889743        2.8778005716        0.2152788168
 H          7.1304391842        2.3168772921       -0.5536792934
 H          6.6181138171        2.8540959340        0.8342258509
 O          8.1878346297       -0.6056498567       -1.1353103928
 H          7.7677929907       -0.3390462735       -0.2875760067
 H          8.6380847259        0.1782408132       -1.5127345441
 O          2.3095532303       -5.9477965371       -1.3225779893
 H          3.2627906077       -5.9708202972       -1.0843617309
 H          1.8281246865       -6.3694458962       -0.5963452734
 O          6.2585605474        0.6680887729        3.6121245803
 H          5.7383838347       -0.1174428066        3.3469870055
 H          6.0112147578        1.3651279094        2.9748078007
 O         -2.1016965538       -3.5590528682        4.8905811539
 H         -1.4466578509       -3.2473351915        5.5448439511
 H         -2.6061652979       -2.7602240591        4.6569155110
 O         -1.6324611349       -5.8556548412       -3.2806438502
 H         -1.6140212955       -6.3230139803       -2.3887587565
 H         -1.1863312395       -6.4477425240       -3.8860336577
 O         -1.9252516914        6.1491772692       -0.6197134315
 H         -2.3234287170        5.3276236473       -0.9675062143
 H         -1.3733100030        6.4903816946       -1.3434456929
 O         -1.5935991767       -7.0438759863       -1.0008271131
 H         -0.8268286192       -6.8886350866       -0.4129101630
 H         -2.3760684645       -6.6721112313       -0.5492799173
 O          5.4009706188        3.8096806686       -2.9498434409
 H          5.2819183159        3.4971749653       -3.8668454042
 H          4.5227402996        3.7016453194       -2.5371937510
 O          9.9634597202       -2.4970194817       -0.8887199526
 H          9.2726692569       -1.7854635109       -0.9100613104
 H         10.0227178118       -2.7463505997       -1.8309313781
 O         -0.2800662942       -2.1620751955        6.2575532027
 H          0.5302047307       -2.6992840119        6.2982619607
 H         -0.1424974006       -1.5538906440        5.5084837479
 O         -7.6699704882       -2.6421020084       -3.8558998137
 H         -7.4932675638       -1.7858860169       -4.2747046019
 H         -6.8186469407       -3.1092129452       -3.8836541902
 O         -4.3526645227       -0.2531757550        6.1477557954
 H         -4.9756535729       -1.0129454249        6.1419602503
 H         -4.8161381638        0.5199274956        5.7883018700
 O         -0.8358721415        1.3432190825       -6.7076173954
 H          0.0948719350        1.1037815036       -6.5961709872
 H         -1.3128044357        0.5180016322       -6.8608139873
 O          6.8009196626       -2.5352730067        4.7532811645
 H          7.4567082138       -1.8933410099        5.1043154224
 H          7.0260322172       -2.5673542815        3.8038433119
 O         -9.7204546059       -0.4804932932        2.5948679121
 H         -9.6821833576       -0.9490900196        3.4365851347
 H         -8.9394056541       -0.7903759087        2.0946223821
 O          9.8949183793       -0.7730745499        2.7081379308
 H         10.5995055239       -0.9123971126        2.0533480906
 H          9.5454913372        0.1151844012        2.5274501848
 O         11.5824598825       -0.9772349286        0.5511524671
 H         12.4715742193       -1.3279164661        0.5453673111
 H         11.0438095450       -1.5667654955       -0.0331191542
 O          4.9768916544       -0.7683568125        5.7567414931
 H          5.0224237587       -0.9870945696        6.6858793873
 H          5.6070524028       -1.3664891006        5.3037972929
 O         -8.2233730577        3.2988367694       -0.6981841430
 H         -7.6236146491        3.9720518488       -0.3467319044
 H         -8.3187599772        3.5155963672       -1.6580745321
 O          5.6462122169        2.3297232986        5.5285281212
 H          5.7495290551        1.5739536473        4.8974129890
 H          5.8885131268        1.9833516212        6.3853406048
 O          3.3989563569        3.7551719257        5.0444419073
 H          4.2073237897        3.2715330832        5.3018656316
 H          3.6251052988        4.2299668248        4.2337887789
 O         -7.1113505397        3.2883160566        3.5143125330
 H         -8.0527646612        3.1101882649        3.4133931706
 H         -6.9476796283        4.1773461380        3.1492723327
 O         -3.7936993521        4.2899548690       -5.0557542005
 H         -3.3773475146        3.4189293748       -4.8892061867
 H         -3.0855845015        4.8323186248       -5.4076608886
 O         -8.2394620424       -2.1158905249        4.3374921957
 H         -7.7161132394       -1.3657515635        3.9978180363
 H         -8.3164237602       -2.7388514415        3.6002285518
 O          8.5352573303       -4.3586210846        0.4553983749
 H          9.1955352211       -3.7816437486        0.0211423699
 H          8.0426162623       -4.7523955688       -0.2893794336
 O          9.6328871369        1.3947275450       -2.0442239732
 H         10.1791090747        1.5551080529       -1.2500925457
 H          9.1728331545        2.2316911542       -2.2438570249
 O         -5.8086353947       -2.4826587255        5.6298024084
 H         -6.7747630417       -2.4270019675        5.5765521852
 H         -5.5272793826       -2.4712795034        4.6882382469
 O         -8.8982618146        1.1651248586       -3.5170057523
 H         -9.8610661361        1.2635064376       -3.4970154143
 H         -8.6921555901        0.9267565414       -2.5836654150
 O          6.6728014880        5.2442300293       -0.8010323210
 H          7.0778461909        4.4249135163       -0.4386904025
 H          6.7115568503        5.1209961985       -1.7555586165
 O         -6.0788807226        5.0524809056       -0.3768196859
 H         -5.7079308638        4.2031396154       -0.0175593229
 H         -5.9456295278        5.0279717547       -1.3343268820
 O        -10.8541718646       -0.3995624809        0.1037949057
 H        -10.7367790456       -0.2836658178        1.0576273700
 H        -10.7231984373       -1.3553708914       -0.0484516788
 O         -8.7201615875       -3.8148807210        2.0846732386
 H         -9.0693635739       -4.6540290631        2.3829938247
 H         -9.3332489385       -3.4830858938        1.4020655034
 O         -6.8768004831       -5.5051918097       -1.0325798753
 H         -6.3596624876       -5.4422955761       -0.2201231252
 H         -6.2977376297       -5.8696879914       -1.7087428497
 O         -1.7096797907        0.1661760342        6.8356949369
 H         -1.4049851146       -0.7504438388        6.9028223561
 H         -2.6776291433        0.1175886169        6.8198893542
 O         10.8862496210        1.6897696092        0.3375496841
 H         10.2433660764        1.6833258954        1.0698609700
 H         11.3188938532        0.8215001548        0.3713318837
 O          7.2440797587       -5.0694298626       -1.8471208454
 H          7.8045603451       -5.2102154244       -2.6092059557
 H          6.9494204412       -4.1269516892       -1.8920888159
 O          6.7534823273       -3.1021343203       -4.2380426773
 H          6.5856321803       -2.2074048476       -3.8726973354
 H          6.6613446140       -3.0342607955       -5.1884188435
 O          4.7569150918        2.7112070563       -5.3382290135
 H          4.7156717434        1.7465769977       -5.4116978930
 H          3.8331695121        3.0171913633       -5.3556192424
 O          8.3332309030       -0.4017908114        5.0953640316
 H          9.0931128144       -0.5221194606        4.5159683948
 H          7.6919482498        0.1306191281        4.5936248743
 O          1.9876226549        5.8863856705       -1.0955609890
 H          1.9025294212        6.3781185255       -0.2455065279
 H          1.4576325666        5.0646326373       -0.9718858353
 O         -4.4639280870       -4.9114371275        4.6847871443
 H         -3.5940969095       -4.5963332306        4.9791049698
 H         -5.1033065022       -4.3362235548        5.1217271948
 O          9.1014628192        0.0323006679       -4.3474966858
 H          9.4951488437        0.4191578580       -3.5474024095
 H          8.7635350888        0.7989088245       -4.8357107316
 O          0.6173019594        4.6984448522        4.8444750151
 H          1.5162434234        4.6086503329        5.1713062951
 H          0.1293051323        3.9090516648        5.1203337084
 O         -0.1956491793        6.3008572148       -2.7592795041
 H          0.6161831971        6.3366686203       -2.2263326186
 H         -0.4224867232        5.3515457914       -2.8664951050
 O         -6.6023382105        5.6639113758        2.3309678232
 H         -5.7695932578        6.1135016137        2.4974420771
 H         -6.6652185786        5.5825451394        1.3720912907
 O          7.7598424713        3.3440017016        3.8450357291
 H          7.3734923174        4.0415369836        3.2944468465
 H          7.0826112553        3.0971086049        4.4898825588
 O          1.1814471199        5.6288562754       -5.0451357630
 H          2.0645376655        5.8943234750       -4.7353958093
 H          0.5784730937        6.0179410413       -4.3836017733
 O         -8.3352725051        3.8233824230       -3.2711590813
 H         -7.4472236617        4.1324957467       -3.4805270311
 H         -8.4182604519        2.8968273626       -3.5667852585
 O          6.5234950483        5.2194289512        2.1730635658
 H          5.6131109595        5.3895452553        2.4273683547
 H          6.6402079243        5.5686034238        1.2845111284
 O         -5.2557588346        1.7532028101       -5.7433744335
 H         -4.3155154456        1.6165778311       -5.4905728623
 H         -5.2954550566        2.6578903509       -6.0599088225
 O        -11.2791989643        1.1853197919       -2.1409273924
 H        -11.4987931051        0.4580037646       -1.5458012832
 H        -11.1673505455        1.9339393141       -1.5354366259
 O          9.4333404187       -2.7292426053       -3.5195559162
 H          9.5302744672       -1.8462361195       -3.8963185913
 H          8.5185724608       -2.9894020528       -3.7141783556
 O         -7.0411126246       -0.1960453938       -4.9592622465
 H         -6.7745467907        0.3571832521       -5.6995426431
 H         -7.7304467609        0.3046543515       -4.4796241666
 O          6.4973254087       -5.0694276447        2.3025612115
 H          7.2946043650       -5.1749604742        1.7682469300
 H          6.7806019231       -4.8140883855        3.1823845097
 O        -10.7139157596        2.9435135110        0.0383897609
 H        -11.1709741366        3.7826903340        0.0573469608
 H         -9.7813182589        3.1353941909       -0.2256946843
 O          7.5998593644        2.2868473598       -4.7858763039
 H          7.6544230697        2.7853515523       -3.9623485346
 H          6.7671757920        2.5282395605       -5.2014346587
 O          8.5625661602        3.8451461264       -2.5049741937
 H          8.9645934290        4.0967035126       -1.6401671556
 H          9.0569283745        4.3232573525       -3.1701584649
 O          1.0045144417        0.7253694647        6.5308704027
 H          1.2898363094        1.1940751619        7.3138054315
 H          0.0601155238        0.5366053352        6.6378458131
 O          9.8577525789        4.2704981068       -0.2117066918
 H         10.4229057053        3.5070976460       -0.0308469682
 H          9.3075768293        4.4002078522        0.5643512064
 O         -4.5290133707       -5.9898932661       -2.8753999331
 H         -3.6000763849       -6.1041987854       -3.1204123519
 H         -4.8129872837       -5.1712601478       -3.3047495098
 O          2.8142383474       -5.8089510948       -4.1260817087
 H          2.1591997000       -5.2463064903       -4.5692336034
 H          2.4382652439       -6.0940207096       -3.2839016079
 O          3.4129926332        5.9190206937       -3.5320810678
 H          4.2673998519        5.5026823721       -3.3820925387
 H          2.9780843964        6.0030586555       -2.6718235090
 O         -1.0271644581        4.0592180573       -5.8756726545
 H         -0.2445130611        4.6171011101       -5.9588018422
 H         -0.8778655568        3.2499956923       -6.3811917685
 O          1.7617630905        6.7829242406        1.3682190179
 H          2.3381332051        6.4232688388        2.0472163042
 H          0.8652447313        6.4234696246        1.5479793462
 O         -1.5686192731        6.0958284521        3.9822253495
 H         -0.7502111491        5.7872212776        4.4019159628
 H         -2.2811858712        5.5871756338        4.3826423565
 O         -4.1094968961        6.4227698283        0.9974300303
 H         -4.8051442232        6.1229123066        0.3861456632
 H         -3.3410580366        6.6426583424        0.4501491153
 O        -10.2706949680       -3.0524442453       -0.0485774252
 H         -9.4692330714       -2.9706696597       -0.6214714740
 H        -10.9516144618       -3.3999676139       -0.6245173788
 O        -10.1952675773       -1.8441838981       -2.6081424977
 H         -9.5687116775       -2.1255130738       -3.2818634805
 H        -10.4635392730       -0.9490620084       -2.8261200737
