  191

 H          0.4630927076        1.1941025329        0.8323452956
 C          0.5529035761        0.5095402430       -0.0251092077
 H          0.4633421182        1.0989800596       -0.9466436098
 C         -0.5779259333       -0.5149488604        0.0205351874
 H         -0.4518492549       -1.1270258236        0.9278134319
 H         -0.4840892691       -1.1748678656       -0.8448928487
 N         -1.8603253886        0.1647702475       -0.0623309408
 H         -2.6131021662       -0.5138473280       -0.0751527667
 H         -1.9956541839        0.7570092263        0.7508171931
 O          1.7808081027       -0.1833448059        0.0209869107
 H          2.5006908393        0.4507195084       -0.0567171281
 O          0.8225216276        2.0335623137        3.7687016217
 H          1.3892719658        2.6481429656        3.2660703401
 H         -0.0424519516        2.0516895759        3.3124153304
 O         -0.9846892740       -1.0285954935        3.2267953624
 H         -0.4781678545       -1.8641975912        3.1500280839
 H         -0.8422079144       -0.7127263686        4.1429392478
 O         -1.4624404694        1.5878742338        2.4545623423
 H         -1.3078997303        0.6574008259        2.6925336546
 H         -2.3902357196        1.7968859990        2.7562368618
 O         -1.3585580714        3.7077502279        0.5745004727
 H         -1.5827685438        3.2147847336       -0.2530955458
 H         -1.2772822929        3.0357155073        1.2652568332
 O          1.1167132891        4.6935695867        0.0110041201
 H          1.3830956290        4.2763301072       -0.8179615811
 H          0.1832883274        4.4516102288        0.1754291947
 O          2.3024243100        3.3574673074        1.9460912484
 H          3.1137866792        3.7671723760        2.2827336809
 H          1.8770409870        3.9910071430        1.3187185425
 O          3.3933267699        1.8767291130        0.0511313229
 H          4.3715551652        1.9316315774        0.0758741916
 H          3.0482793796        2.3781599235        0.8279508129
 O         -1.9548791333        2.2960642756       -1.5615756720
 H         -1.2659754679        2.3686376337       -2.2449391598
 H         -1.8951506068        1.3768889177       -1.1720662479
 O          2.5455739448        3.1653061903       -2.0687332087
 H          3.3586909512        3.6322549603       -2.3066843364
 H          2.8021606840        2.6663289806       -1.2490847613
 O          2.1727579808       -0.0733511316        2.8298616934
 H          1.5949089017        0.6249246311        3.2116375076
 H          1.9561889945       -0.1699172214        1.8895004445
 O          0.5310982129       -3.7246519966        0.2277252084
 H         -0.3794352709       -3.3846025510        0.1173576241
 H          1.1707322155       -3.0600717207       -0.0888803792
 O          0.3308082792       -3.3683448362        2.9012858115
 H          1.1936387826       -3.2924750025        3.3329541295
 H          0.5133029380       -3.5664436533        1.9581417263
 O         -2.1186151440       -3.2531718781        0.1521417594
 H         -2.1822162191       -4.0412514794        0.7245829656
 H         -2.5592167239       -2.5632082453        0.6800114365
 O         -3.3281809064       -1.6656406515        2.1119570111
 H         -2.5032484823       -1.3985155639        2.5666162592
 H         -3.7296848536       -0.8655981900        1.7221887765
 O          0.0642590796        2.6674537800       -3.2960478760
 H          0.9368355346        2.9316826157       -2.9764293558
 H          0.1991464296        2.0249577222       -4.0281365343
 O         -4.5861755516        2.3793558160       -0.9930048120
 H         -3.6602430067        2.3500651724       -1.2975437792
 H         -4.5979866224        3.0661684293       -0.2909657329
 O         -4.6453313844        0.4202368199        0.9551572149
 H         -4.6510614963        1.0875276745        0.2436417940
 H         -5.5187937235       -0.0150753396        0.9154827551
 O         -0.9683901469       -1.3825059982       -3.9361551916
 H         -0.1815508465       -1.2621383934       -3.3737567583
 H         -1.3577821462       -2.2258984849       -3.6382165868
 O          2.8209483255       -2.6367606991       -0.6654906502
 H          2.9730404167       -3.4878546399       -1.1307838591
 H          3.3059057960       -2.7269638483        0.1689550901
 O          1.3063456326       -0.9848128939       -2.5788493073
 H          1.8068850986       -0.2588254814       -3.0031940596
 H          1.5307535491       -0.9535835864       -1.6336912813
 O         -2.0539793881       -3.5479229994       -2.6419785599
 H         -2.1474912306       -3.4028788716       -1.6841046939
 H         -2.9614363983       -3.6487591895       -2.9724977777
 O         -3.0048530971        0.0503688375       -3.0333134384
 H         -2.2171588524       -0.3415212821       -3.4642379558
 H         -3.1162415640        0.9754160540       -3.3373511896
 O         -4.1661209654       -1.4810905505       -1.1535909183
 H         -5.0027936050       -0.9745436139       -1.1262833752
 H         -3.5991707406       -0.9522168726       -1.7456922364
 O         -6.1739351673        0.2562911808       -1.7201117403
 H         -5.6531484763        1.0698177547       -1.6102615980
 H         -6.0958436357       -0.0131316815       -2.6539214190
 O          2.9786657194        0.8857356102       -3.5215735700
 H          3.5351204323        0.4134334149       -2.8603415669
 H          2.7950750003        1.7561960544       -3.1226504089
 O          6.0528726639        2.1223543061       -0.0984310459
 H          6.4512329605        1.3605789890       -0.5746014726
 H          6.5213940744        2.1815621200        0.7582461402
 O          4.7011421382        0.8450404319        3.0676729871
 H          3.7519067909        0.6385874432        3.1771029614
 H          4.8927169148        0.5104012402        2.1678313037
 O          2.3205240776       -3.2315479466       -3.6789924070
 H          1.7131117256       -3.9168827917       -3.3593415574
 H          1.9493741339       -2.3990665173       -3.3285493561
 O         -4.0864205095        4.0588184239        1.0453044918
 H         -3.1265835881        4.1651891399        0.9303185389
 H         -4.1994180027        3.5607015834        1.8654654364
 O         -6.8456614838       -1.2120173095        0.7853853441
 H         -7.1399339088       -1.3788709746       -0.1226983302
 H         -6.3340972304       -2.0201733955        0.9977558146
 O          4.8529901985        3.5809840364        2.7234544214
 H          4.7853760228        2.6339298253        2.9508713781
 H          5.7812756254        3.7508394035        2.5575153243
 O         -5.1437519336       -3.2989264040        0.8612822226
 H         -4.5447041264       -2.9913647389        1.5535779438
 H         -4.7448355718       -2.9841086939        0.0378551862
 O         -3.9559359506        1.9716363300        3.0460427838
 H         -4.1552047522        1.3457762858        3.7727618286
 H         -4.3949288674        1.5501633271        2.2754035185
 O         -6.9446670208        0.2171322141        3.2249258712
 H         -6.8171688372        1.0890169052        2.8129043477
 H         -7.0861341061       -0.3886091933        2.4859270697
 O         -6.5621060225        2.3893845322        1.5696001846
 H         -7.1943066085        2.0856361110        0.8842298932
 H         -6.5670741569        3.3457846350        1.5511146474
 O          4.2125154427       -0.6744903202       -1.7767049027
 H          4.6981233943       -1.2337303164       -2.4081377810
 H          3.5676568322       -1.3050712493       -1.3817103300
 O          5.2829041268        3.6036596231       -2.1961302912
 H          5.8586281042        4.3626349014       -2.2775272687
 H          5.5584211935        3.1384534262       -1.3765087940
 O          0.4635008587       -4.8053820699       -2.3162820491
 H          0.4409115213       -4.5597034445       -1.3720014295
 H         -0.4092710666       -4.5585572561       -2.6546602252
 O          5.0887658112       -0.4303258255        0.7575288193
 H          4.8611054586       -0.3555018746       -0.1905875452
 H          4.7671895972       -1.3096347449        1.0463583664
 O         -0.5207802028        0.3053654939        5.4941303726
 H          0.0970573759        0.9672118751        5.1484564915
 H         -1.3119667502        0.7734873943        5.7665282881
 O         -2.0488960179       -4.7793236344        2.3768973354
 H         -1.2248627518       -4.4074001393        2.7277036115
 H         -2.7436094627       -4.5393369547        2.9914986784
 O         -5.3180518890       -0.5421091726       -4.1899123954
 H         -5.4443890384        0.1286063363       -4.8613029062
 H         -4.4167599680       -0.3756360373       -3.8205048681
 O          2.8716961865       -2.5214906185        3.6336791188
 H          3.6508398031       -2.3389845933        4.1942990592
 H          2.5166839886       -1.6304791529        3.4310176760
 O         -4.7966916398       -3.1505188199       -3.1292585736
 H         -4.5539134323       -2.5841027444       -2.3607190830
 H         -5.0464414835       -2.5262793424       -3.8202342612
 O          4.4036691980       -2.9050742651        1.5241284998
 H          3.7841559659       -2.8493285951        2.2962342789
 H          5.2871644278       -3.0446090065        1.9147846721
 O         -4.5698824671       -0.2485184592        4.4061379106
 H         -4.2369299459       -0.9549655874        3.8403697561
 H         -5.5097498932       -0.1333730243        4.1467315786
 O         -8.2321257688        1.2563446366       -0.2220544632
 H         -8.5798563087        0.5181777872        0.2830177872
 H         -7.5942485621        0.8691975322       -0.8501372427
 O          7.3053714056        1.8882144005        2.3022175651
 H          7.7318988282        1.0617976453        2.0149919384
 H          6.6693362699        1.6195899966        2.9742298374
 O         -7.0728852144       -2.8746642195       -1.4479036976
 H         -6.4659157511       -3.0690342447       -2.1783478809
 H         -6.9477055212       -3.5815502884       -0.8102850564
 O          4.8979310993       -2.7593018533       -3.3437070540
 H          3.9568904019       -3.0529238705       -3.4412410287
 H          5.2760439736       -2.7892248681       -4.2209138930
 O          0.4971290616        0.7794688427       -5.1321102546
 H          1.4201772190        0.5423954791       -4.9958143347
 H         -0.0338942499       -0.0149071899       -4.9864214944
 O         -3.9223691276        2.4129960522       -3.8847821773
 H         -4.5097731640        2.6791403578       -3.1703274511
 H         -3.2691164467        3.1361425696       -3.9696366981
 O          7.0760584228        0.0473008801       -1.4984403763
 H          6.7451633932        0.3579689258       -2.3597149122
 H          6.7880715757       -0.8754725690       -1.4016268747
 O          7.6970230777       -0.5650279515        1.1814522473
 H          6.7352699555       -0.4665165852        0.9588602506
 H          8.1403389554       -0.5655290532        0.3287433034
 O          6.2892798371       -2.6256778110       -0.9640285282
 H          5.7140827507       -2.9729758478       -0.2767449180
 H          5.8985100820       -2.9077719265       -1.8048122179
 O         -2.0517034189        4.3776354177       -3.7098947109
 H         -1.2203197406        3.8729066730       -3.7198786462
 H         -2.1361917992        4.7369199495       -2.8241216907
 O          5.2720525007       -1.5669343759        4.3988514448
 H          5.9717545005       -1.9945221723        3.8917672295
 H          5.1870308225       -0.6621719350        4.0531862672
 O          6.9570020588       -2.8179792589        2.4130795037
 H          7.3312174817       -2.0085257783        1.9958486781
 H          7.5328551779       -3.5378477690        2.1592806748
 O          5.8594848730        1.2693767424       -3.6570695848
 H          5.0074553004        1.0273985112       -4.0364671962
 H          5.7190390229        2.1399778195       -3.2505808313
 O          3.0825565365       -5.2003257353       -1.3725363070
 H          2.8749294600       -5.6157529374       -0.5332805615
 H          2.3138844266       -5.3425045518       -1.9408311791
