  91

 H          1.6076330690       -1.8714746292       -0.3809689797
 C          1.7180444491       -0.8544555062       -0.0098837616
 H          1.8724601990       -0.8969599511        1.0663628157
 H          2.6028040653       -0.4168555345       -0.4663537639
 C          0.4840305821       -0.0179563836       -0.3356593451
 H          0.3410668586       -0.0118538546       -1.4229719519
 C         -0.7656163312       -0.6347994997        0.3010353616
 H         -0.6868653211       -0.5671005856        1.3900995731
 H         -0.8130442595       -1.7053008182        0.0329647767
 C          0.6615716764        1.4211267387        0.1380455520
 H          0.8807914412        1.4410755098        1.2033036843
 H         -0.2534245017        1.9798715294       -0.0358041383
 H          1.4796809897        1.9021997426       -0.3931231208
 N         -1.9551341142        0.1025083472       -0.0973158516
 H         -2.0841301804        0.0367675730       -1.1020129781
 H         -2.7785686021       -0.2890602456        0.3462174872
 O         -2.5254162643        2.5630585581        0.5880709099
 H         -3.4944546331        2.4457566641        0.6225435629
 H         -2.2084974858        1.6340677162        0.3525642484
 O         -1.9475324391        3.2281247314       -1.9719315462
 H         -2.1903706608        3.0969914433       -1.0286899043
 H         -1.1661515161        3.7953624280       -1.9631815204
 O         -2.0436644194       -0.9842699384       -3.1338044286
 H         -1.5014735849       -0.1534930280       -3.2514085452
 H         -2.2246138504       -1.3017282128       -4.0196302736
 O         -3.5749004147       -2.5834428593       -1.3417409655
 H         -2.8896293637       -3.1888922912       -1.0072488964
 H         -3.1249327302       -2.0041443912       -1.9716287123
 O         -4.5345732194       -1.3429991320        0.7615712288
 H         -5.4037522325       -1.6824600619        0.9767052034
 H         -4.2621540045       -1.7954890581       -0.0820208250
 O         -0.7827363271        1.2628179673       -3.4054553907
 H         -1.2185421095        1.9829195722       -2.9005593162
 H          0.1650628909        1.3573342380       -3.2447953463
 O          1.9687305739        1.7703037229       -2.9642864472
 H          2.7344929056        1.8649333596       -2.3217043380
 H          2.3253772834        1.9973519449       -3.8239741306
 O          3.2823159816        3.3799705340        0.9244485174
 H          3.2708899408        2.6064887710        1.5100258340
 H          2.4211444711        3.8237439068        1.0599715379
 O          3.3268711746        1.0303371207        2.4936050765
 H          2.4058933737        0.8464484620        2.8005934387
 H          3.8312242008        1.1912258548        3.2914369847
 O          0.8826821542        0.6234867282        3.5002764472
 H          0.2234959006        1.2947782438        3.2589300494
 H          0.4705830571       -0.2433475035        3.3567783692
 O         -0.9164627872        2.6771638825        2.7076810941
 H         -1.5509859739        2.6329873919        1.9505392316
 H         -1.3735690554        3.1357861896        3.4120051959
 O          0.1698753194       -2.7119815507       -2.6342757076
 H          0.8870517488       -2.1487449851       -3.0081837938
 H         -0.6188977542       -2.1500910326       -2.6781176290
 O         -4.9510457209        1.4528127103        0.1959688864
 H         -4.8845079713        0.5373948983        0.5002770479
 H         -4.8118824297        1.4129544097       -0.7654030321
 O          3.9415916563        2.1277303535       -1.3308889991
 H          4.2889092595        1.3152305021       -0.9284283802
 H          3.7224614392        2.7060927246       -0.5626222679
 O         -1.3798186815       -3.9687188505       -0.4562474662
 H         -0.7166927084       -4.1053121894        0.2578179873
 H         -0.8620937519       -3.8017094538       -1.2535620542
 O         -0.2468227778       -1.9608540838        3.1829786489
 H         -0.1606223361       -2.4039380408        4.0276279882
 H         -1.1475470107       -2.1874325473        2.8506466028
 O         -2.5796284249       -2.7609750618        2.1401167031
 H         -3.2689918745       -2.1754112847        1.7814576339
 H         -2.3199167121       -3.3422207755        1.4165523874
 O          0.7580643589        4.3721881736        1.2043415188
 H          0.2405362278        3.7858354622        1.7812521567
 H          0.4002460823        4.2602503918        0.3163162204
 O          0.5646877291       -3.9889275908        1.3907168875
 H          0.4639463260       -3.1996035232        1.9468448339
 H          1.2824471481       -3.8108648902        0.7653138634
 O          2.1604599626       -1.0814330060       -3.3951132671
 H          2.9580222396       -1.4023482346       -2.9314422852
 H          2.0653711287       -0.1496374245       -3.1540377628
 O          4.1758924645       -2.0321031900       -1.7737189740
 H          3.5823646221       -2.6836261493       -1.3709390008
 H          4.4390747921       -1.4298536480       -1.0672104161
 O          4.7646922837        0.0327184514        0.3179719958
 H          4.1913044873        0.3004296151        1.0616373901
 H          5.6673774265        0.1979343261        0.5940463359
 O         -4.0099352352        1.2260150999       -2.4193288810
 H         -3.4986519237        0.4882995930       -2.7683043676
 H         -3.4513105376        2.0101296528       -2.4872385744
 O          0.7449237417        4.0274447961       -1.7646937643
 H          1.5142506932        4.5319485327       -1.4944877055
 H          1.0902988954        3.2232022819       -2.1903634046
 O          2.0507431910       -3.7961996538       -0.9911237737
 H          1.3688999135       -3.4786018880       -1.6179896512
 H          2.2176736364       -4.7093793283       -1.2157339561
