  91
 
 H          0.5878507712       -0.0596718974       -1.8869805484
 C          1.0440296993        0.1573208248       -0.9267489072
 H          2.1183190294        0.2140362885       -1.0492204227
 H          0.6929192879        1.1277359218       -0.5933619172
 C          0.6858258056       -0.9302283257        0.0809654286
 H          1.1594840476       -0.6942028205        1.0354148134
 C         -0.8247238999       -0.9538077105        0.3140255559
 H         -1.1230290413       -1.9273066091        0.7063456280
 H         -1.3397394413       -0.7989058518       -0.6391410432
 C          1.1796250974       -2.2979761574       -0.3789264441
 H          0.9626965511       -3.0495388013        0.3741197654
 H          2.2527397153       -2.2790135920       -0.5423702227
 H          0.6913603041       -2.5879258831       -1.3041882504
 N         -1.1969571290        0.0514177842        1.3074868772
 H         -0.7329945706        0.9285554309        1.1087307378
 H         -2.1947862904        0.2143967358        1.2900037285
 O         -2.2081989029        2.2971939695       -0.8797774115
 H         -1.4278239749        2.4549597052       -0.3176083420
 H         -2.9250889380        2.0737998846       -0.2589509218
 O         -2.1683510236        0.6027936470       -2.9402624942
 H         -3.0202607417        0.7725527800       -3.3438990357
 H         -2.1217709078        1.1821879728       -2.1440123180
 O         -1.1947278800       -1.9909365234       -3.0621370952
 H         -1.5255189501       -1.0776211030       -3.0850779908
 H         -1.6744289373       -2.4121476793       -2.3337979257
 O         -0.4047619353        1.7118691637        4.2103352774
 H         -0.5455122090        0.7505189663        4.2202339640
 H          0.4175693116        1.8598108044        3.7252500728
 O         -3.0598398462       -2.8111741901       -1.0266547639
 H         -3.4692085225       -2.1251789571       -0.4507906989
 H         -3.7884304069       -3.2732790646       -1.4438146962
 O          1.4029787814       -1.7222972779       -3.7591213750
 H          1.4611889732       -2.1892135061       -4.5932870007
 H          0.4793142265       -1.8449023847       -3.4462715532
 O          3.8297825012       -1.0189711060       -2.4438697198
 H          3.0029609660       -1.4591227088       -2.6955700745
 H          3.8478264816       -0.2113509448       -2.9658032434
 O          0.1624271052       -4.7065879894        1.9187283628
 H         -0.7881176502       -4.5483587440        1.7002313012
 H          0.4369231648       -5.4582266814        1.3936043758
 O          2.0983567295        0.9698785513       -4.0573768001
 H          1.2567020953        1.4275014041       -4.2935123263
 H          1.8410307731        0.0407878139       -3.9304988605
 O          3.0671560695        2.5925170562       -2.2659936558
 H          3.6774982365        3.0936990547       -2.8084645915
 H          2.6438743269        1.9325168237       -2.8838396424
 O          1.8129715685        1.8882198764        2.3159000333
 H          2.5478088774        2.1834425197        1.7439530277
 H          2.0828191291        0.9778012790        2.5510914147
 O         -2.1892638325        2.9178526661        2.6083288162
 H         -1.5132729628        3.1770640976        1.9626586981
 H         -1.6736905225        2.4779492171        3.3208836390
 O         -3.9210737846        1.6296064324        1.1643177410
 H         -3.2880335551        2.0833049596        1.7991323535
 H         -4.7572960368        2.0842869241        1.2686591266
 O         -0.2945004923        2.0544095878       -4.4228279978
 H         -0.4584338851        2.8932925329       -3.9486098092
 H         -0.9054881882        1.4211809946       -4.0139218149
 O         -0.1053128989        2.9229909298        0.7747984226
 H          0.3886918169        3.5096504947        0.1751211680
 H          0.5705947851        2.5479047284        1.3855990284
 O          3.7765290456        2.1475041828        0.4371733171
 H          3.5114301029        2.2955354843       -0.4814409911
 H          4.0264892218        1.2106835902        0.4807208586
 O         -0.8564175091       -0.9907571351        3.6760502053
 H         -0.8951805028       -0.5607046719        2.7628859513
 H         -0.0879342090       -1.5847281308        3.6454393489
 O          1.3574380779        4.2939424284       -1.0773539883
 H          1.9361191876        3.6289441730       -1.5146393248
 H          1.9371954984        4.9618849510       -0.7093071542
 O         -3.1043464254       -2.2242814574        3.0768735379
 H         -3.6004176993       -2.3863361592        3.8790109882
 H         -2.2593308506       -1.7736999636        3.3558988425
 O          1.2646983604       -2.7569215351        3.3983113505
 H          0.8971981834       -3.4404968017        2.8017072006
 H          1.5224100013       -3.2104086134        4.2016947484
 O          2.8808613087       -0.5788279857        2.6729777238
 H          3.3583479122       -0.7321027551        1.8468303009
 H          2.3744950182       -1.3801606947        2.8710896213
 O          4.3829754700       -0.6001906898        0.1929304108
 H          4.1578364114       -0.7912888788       -0.7427400854
 H          5.3064341152       -0.8304808456        0.3000076179
 O         -2.3694447521       -4.2178806501        1.2912148100
 H         -2.5106194718       -3.7985737677        0.4249420605
 H         -2.6852179838       -3.5768853260        1.9514080014
 O         -0.9392166653        4.0760029691       -2.7143798802
 H         -1.5393296900        3.5988330559       -2.1253512367
 H         -0.1632686900        4.2946921137       -2.1802783532
 O         -4.2190402695       -1.1641731127        0.7535844074
 H         -4.1946994118       -0.2002170963        0.8417257527
 H         -3.8942644266       -1.5213864874        1.5986931525
