  91
 
 H         -0.9606738213        1.8079346227       -0.1856863514
 C         -0.3377537867        1.4012368572        0.6012936190
 H          0.6282933151        1.1354330866        0.1913454162
 H         -0.1948918573        2.1634930430        1.3542945503
 C         -1.0098507793        0.1786931000        1.2113223986
 H         -0.3693290574       -0.2184949967        2.0022978936
 C         -2.3389656767        0.5927422081        1.8462062620
 H         -3.0051145382        0.9959113025        1.0769322794
 H         -2.1410972933        1.3893863177        2.5744156393
 C         -1.2140132707       -0.8991424841        0.1547423060
 H         -1.6457160338       -1.7815786641        0.6042028185
 H         -0.2670191149       -1.1736990997       -0.2934922625
 H         -1.8776987700       -0.5339213691       -0.6199886564
 N         -3.0172147378       -0.5549251814        2.4592759819
 H         -2.3686564107       -1.0251103157        3.0866463041
 H         -3.7953057564       -0.2277014763        3.0223334726
 O         -1.7625234654        3.7940651361       -1.2074581108
 H         -1.5277219736        4.0612480601       -0.2755586295
 H         -2.2036022593        4.5542287325       -1.5887792976
 O         -2.3019126542        1.2956147170       -2.4501057904
 H         -2.2507002209        2.1484780382       -1.9939567387
 H         -1.3885969841        0.9643285415       -2.5094404804
 O         -2.5180251481       -2.8244620539       -2.4256996813
 H         -2.4581129492       -3.3032265449       -1.5802084374
 H         -3.0797185893       -2.0473328236       -2.2478352122
 O         -0.5481690064        3.1768155958        3.5397227987
 H         -0.3501201617        3.8336535898        4.2086243378
 H          0.2888230340        2.7038504494        3.3731742307
 O         -2.4952247125       -4.0086829063        0.0959125173
 H         -3.1943921324       -3.3246343106        0.3384460856
 H         -2.9308994142       -4.8611763054        0.1265927106
 O         -0.1121226943       -2.2791936067       -3.2293633609
 H         -1.0571786930       -2.4388764710       -2.9395360880
 H         -0.0830600533       -2.5190142344       -4.1568505724
 O          2.7676526220       -2.0930095421       -2.6166925947
 H          2.9505911214       -1.3679900219       -3.2610342925
 H          1.8762937614       -2.3945858342       -2.8289829817
 O          2.9436779091       -3.8430345165       -0.3728785683
 H          2.0900646339       -4.2378350422       -0.6257471887
 H          3.2183657844       -3.3334761681       -1.1459139846
 O          2.8133146839        0.1397512635       -4.0428014533
 H          3.4440142082        0.6954055441       -3.5488016412
 H          1.9347567308        0.4395342803       -3.7672789724
 O          4.2853060728        1.5973382600       -2.2546941565
 H          4.5864083770        1.0831720973       -1.5016678990
 H          3.7581132045        2.3276148979       -1.8909045315
 O          1.8698946058        1.9187546895        2.9797040661
 H          2.4706195970        1.7856541561        2.2152892595
 H          1.6805376239        1.0176281430        3.2813799644
 O         -1.0664246402        4.6433970820        1.1829774937
 H         -0.0929464215        4.7475957866        1.1742075830
 H         -1.2262795244        4.0967613059        1.9678721177
 O         -4.0455982316       -0.6173027421       -1.8324877777
 H         -4.8181836820       -0.4806595346       -2.3815179607
 H         -3.4298726895        0.1287042257       -2.0331291179
 O          0.3532248502        0.3555082251       -2.6053306504
 H          0.8820259976        0.2018796100       -1.7945868963
 H          0.1333411289       -0.5422028051       -2.9164113171
 O          1.6337163169        4.4533179828        1.3748583764
 H          2.0294643587        4.1498057361        0.5435208971
 H          1.7756313095        3.7461700109        2.0149662301
 O          3.3765639296        1.5321597153        0.7494190165
 H          3.2368873119        2.3174762081        0.2071017676
 H          2.9516700139        0.7967754232        0.2649667877
 O         -0.8200934344       -1.8899446847        4.1679105454
 H         -0.7486931644       -2.2768719917        5.0411057229
 H          0.0261010459       -1.4297125140        3.9954150093
 O          2.7202846271        3.6152184124       -1.0872183680
 H          3.0783491407        4.4363824960       -1.4276796307
 H          1.8814405250        3.4427455750       -1.6082382620
 O         -0.4763229980       -3.6660594871        2.0511133943
 H         -1.2260384774       -3.7833521758        1.4494062117
 H         -0.7764741720       -3.0982851130        2.7796072938
 O          1.6793389798       -2.2321317796        1.3104405282
 H          2.2894967565       -2.8544639565        0.8501124654
 H          0.8776993174       -2.7691187774        1.4978804381
 O          1.6527556197       -0.8479821053        3.5670802305
 H          2.4377009833       -1.0841076601        4.0633658139
 H          1.7322269848       -1.3133585852        2.6975080624
 O          2.0941707453       -0.4230229217       -0.6335922368
 H          1.8575794673       -1.0100802629        0.1154364601
 H          2.5142981838       -1.0164380365       -1.2937747556
 O          0.3451172551       -4.2807764458       -1.1898910533
 H          0.1838315987       -3.6076882420       -1.8640131533
 H         -0.4065184331       -4.2554047138       -0.5910016175
 O          0.5765983709        3.1615056283       -2.4718783545
 H         -0.2445065705        3.4272365123       -2.0126730094
 H          0.4944549896        2.2133698352       -2.6438237600
 O         -4.2086164100       -2.1333544920        0.6174525187
 H         -3.7834891367       -1.5612120652        1.3127664452
 H         -4.2464140617       -1.5801928369       -0.1757325893
