 xtb: 6.5.1 (579679a)
          10122201333D

 91 65  0     0  0            999 V2000
   -0.9607    1.8079   -0.1857 H   0  0  0  0  0  0  0  0  0  0  0  0
   -0.3377    1.4012    0.6013 C   0  0  0  0  0  0  0  0  0  0  0  0
    0.6283    1.1354    0.1913 H   0  0  0  0  0  0  0  0  0  0  0  0
   -0.1949    2.1635    1.3543 H   0  0  0  0  0  0  0  0  0  0  0  0
   -1.0098    0.1787    1.2113 C   0  0  0  0  0  0  0  0  0  0  0  0
   -0.3693   -0.2185    2.0023 H   0  0  0  0  0  0  0  0  0  0  0  0
   -2.3390    0.5928    1.8462 C   0  0  0  0  0  0  0  0  0  0  0  0
   -3.0051    0.9959    1.0769 H   0  0  0  0  0  0  0  0  0  0  0  0
   -2.1411    1.3894    2.5744 H   0  0  0  0  0  0  0  0  0  0  0  0
   -1.2140   -0.8991    0.1547 C   0  0  0  0  0  0  0  0  0  0  0  0
   -1.6457   -1.7816    0.6042 H   0  0  0  0  0  0  0  0  0  0  0  0
   -0.2670   -1.1737   -0.2935 H   0  0  0  0  0  0  0  0  0  0  0  0
   -1.8777   -0.5339   -0.6200 H   0  0  0  0  0  0  0  0  0  0  0  0
   -3.0172   -0.5549    2.4593 N   0  0  0  0  0  0  0  0  0  0  0  0
   -2.3687   -1.0251    3.0867 H   0  0  0  0  0  0  0  0  0  0  0  0
   -3.7953   -0.2277    3.0223 H   0  0  0  0  0  0  0  0  0  0  0  0
   -1.7625    3.7941   -1.2075 O   0  0  0  0  0  0  0  0  0  0  0  0
   -1.5277    4.0613   -0.2756 H   0  0  0  0  0  0  0  0  0  0  0  0
   -2.2036    4.5542   -1.5888 H   0  0  0  0  0  0  0  0  0  0  0  0
   -2.3019    1.2956   -2.4501 O   0  0  0  0  0  0  0  0  0  0  0  0
   -2.2507    2.1485   -1.9940 H   0  0  0  0  0  0  0  0  0  0  0  0
   -1.3886    0.9643   -2.5094 H   0  0  0  0  0  0  0  0  0  0  0  0
   -2.5180   -2.8245   -2.4257 O   0  0  0  0  0  0  0  0  0  0  0  0
   -2.4581   -3.3032   -1.5802 H   0  0  0  0  0  0  0  0  0  0  0  0
   -3.0797   -2.0473   -2.2478 H   0  0  0  0  0  0  0  0  0  0  0  0
   -0.5481    3.1768    3.5397 O   0  0  0  0  0  0  0  0  0  0  0  0
   -0.3501    3.8337    4.2086 H   0  0  0  0  0  0  0  0  0  0  0  0
    0.2888    2.7039    3.3732 H   0  0  0  0  0  0  0  0  0  0  0  0
   -2.4952   -4.0087    0.0959 O   0  0  0  0  0  0  0  0  0  0  0  0
   -3.1944   -3.3246    0.3385 H   0  0  0  0  0  0  0  0  0  0  0  0
   -2.9309   -4.8612    0.1266 H   0  0  0  0  0  0  0  0  0  0  0  0
   -0.1121   -2.2792   -3.2294 O   0  0  0  0  0  0  0  0  0  0  0  0
   -1.0572   -2.4389   -2.9395 H   0  0  0  0  0  0  0  0  0  0  0  0
   -0.0831   -2.5190   -4.1568 H   0  0  0  0  0  0  0  0  0  0  0  0
    2.7676   -2.0930   -2.6167 O   0  0  0  0  0  0  0  0  0  0  0  0
    2.9506   -1.3680   -3.2610 H   0  0  0  0  0  0  0  0  0  0  0  0
    1.8763   -2.3946   -2.8290 H   0  0  0  0  0  0  0  0  0  0  0  0
    2.9437   -3.8431   -0.3729 O   0  0  0  0  0  0  0  0  0  0  0  0
    2.0900   -4.2378   -0.6257 H   0  0  0  0  0  0  0  0  0  0  0  0
    3.2183   -3.3335   -1.1459 H   0  0  0  0  0  0  0  0  0  0  0  0
    2.8133    0.1397   -4.0428 O   0  0  0  0  0  0  0  0  0  0  0  0
    3.4440    0.6954   -3.5488 H   0  0  0  0  0  0  0  0  0  0  0  0
    1.9347    0.4395   -3.7673 H   0  0  0  0  0  0  0  0  0  0  0  0
    4.2853    1.5973   -2.2547 O   0  0  0  0  0  0  0  0  0  0  0  0
    4.5864    1.0831   -1.5017 H   0  0  0  0  0  0  0  0  0  0  0  0
    3.7581    2.3276   -1.8909 H   0  0  0  0  0  0  0  0  0  0  0  0
    1.8699    1.9188    2.9797 O   0  0  0  0  0  0  0  0  0  0  0  0
    2.4706    1.7856    2.2153 H   0  0  0  0  0  0  0  0  0  0  0  0
    1.6806    1.0176    3.2814 H   0  0  0  0  0  0  0  0  0  0  0  0
   -1.0664    4.6434    1.1830 O   0  0  0  0  0  0  0  0  0  0  0  0
   -0.0929    4.7476    1.1742 H   0  0  0  0  0  0  0  0  0  0  0  0
   -1.2263    4.0968    1.9679 H   0  0  0  0  0  0  0  0  0  0  0  0
   -4.0456   -0.6173   -1.8325 O   0  0  0  0  0  0  0  0  0  0  0  0
   -4.8182   -0.4806   -2.3815 H   0  0  0  0  0  0  0  0  0  0  0  0
   -3.4299    0.1287   -2.0331 H   0  0  0  0  0  0  0  0  0  0  0  0
    0.3532    0.3555   -2.6053 O   0  0  0  0  0  0  0  0  0  0  0  0
    0.8820    0.2019   -1.7946 H   0  0  0  0  0  0  0  0  0  0  0  0
    0.1333   -0.5422   -2.9164 H   0  0  0  0  0  0  0  0  0  0  0  0
    1.6337    4.4533    1.3748 O   0  0  0  0  0  0  0  0  0  0  0  0
    2.0295    4.1498    0.5435 H   0  0  0  0  0  0  0  0  0  0  0  0
    1.7757    3.7462    2.0150 H   0  0  0  0  0  0  0  0  0  0  0  0
    3.3766    1.5321    0.7494 O   0  0  0  0  0  0  0  0  0  0  0  0
    3.2369    2.3175    0.2071 H   0  0  0  0  0  0  0  0  0  0  0  0
    2.9517    0.7968    0.2650 H   0  0  0  0  0  0  0  0  0  0  0  0
   -0.8201   -1.8899    4.1679 O   0  0  0  0  0  0  0  0  0  0  0  0
   -0.7487   -2.2769    5.0411 H   0  0  0  0  0  0  0  0  0  0  0  0
    0.0261   -1.4297    3.9954 H   0  0  0  0  0  0  0  0  0  0  0  0
    2.7203    3.6152   -1.0872 O   0  0  0  0  0  0  0  0  0  0  0  0
    3.0784    4.4364   -1.4277 H   0  0  0  0  0  0  0  0  0  0  0  0
    1.8815    3.4427   -1.6083 H   0  0  0  0  0  0  0  0  0  0  0  0
   -0.4763   -3.6661    2.0511 O   0  0  0  0  0  0  0  0  0  0  0  0
   -1.2261   -3.7833    1.4494 H   0  0  0  0  0  0  0  0  0  0  0  0
   -0.7765   -3.0983    2.7796 H   0  0  0  0  0  0  0  0  0  0  0  0
    1.6793   -2.2321    1.3104 O   0  0  0  0  0  0  0  0  0  0  0  0
    2.2895   -2.8545    0.8501 H   0  0  0  0  0  0  0  0  0  0  0  0
    0.8777   -2.7691    1.4979 H   0  0  0  0  0  0  0  0  0  0  0  0
    1.6528   -0.8480    3.5671 O   0  0  0  0  0  0  0  0  0  0  0  0
    2.4377   -1.0841    4.0634 H   0  0  0  0  0  0  0  0  0  0  0  0
    1.7322   -1.3134    2.6975 H   0  0  0  0  0  0  0  0  0  0  0  0
    2.0942   -0.4230   -0.6336 O   0  0  0  0  0  0  0  0  0  0  0  0
    1.8576   -1.0101    0.1154 H   0  0  0  0  0  0  0  0  0  0  0  0
    2.5143   -1.0165   -1.2938 H   0  0  0  0  0  0  0  0  0  0  0  0
    0.3451   -4.2808   -1.1899 O   0  0  0  0  0  0  0  0  0  0  0  0
    0.1838   -3.6077   -1.8640 H   0  0  0  0  0  0  0  0  0  0  0  0
   -0.4065   -4.2554   -0.5910 H   0  0  0  0  0  0  0  0  0  0  0  0
    0.5766    3.1615   -2.4719 O   0  0  0  0  0  0  0  0  0  0  0  0
   -0.2445    3.4272   -2.0127 H   0  0  0  0  0  0  0  0  0  0  0  0
    0.4945    2.2134   -2.6438 H   0  0  0  0  0  0  0  0  0  0  0  0
   -4.2086   -2.1333    0.6175 O   0  0  0  0  0  0  0  0  0  0  0  0
   -3.7835   -1.5612    1.3128 H   0  0  0  0  0  0  0  0  0  0  0  0
   -4.2464   -1.5802   -0.1757 H   0  0  0  0  0  0  0  0  0  0  0  0
  1  2  1  0  0  0  0
  2  3  1  0  0  0  0
  2  4  1  0  0  0  0
  2  5  1  0  0  0  0
  5  6  1  0  0  0  0
  5  7  1  0  0  0  0
  7  8  1  0  0  0  0
  7  9  1  0  0  0  0
  5 10  1  0  0  0  0
 10 11  1  0  0  0  0
 10 12  1  0  0  0  0
 10 13  1  0  0  0  0
  7 14  1  0  0  0  0
 14 15  1  0  0  0  0
 14 16  1  0  0  0  0
 17 18  1  0  0  0  0
 17 19  1  0  0  0  0
 20 21  1  0  0  0  0
 20 22  1  0  0  0  0
 23 24  1  0  0  0  0
 23 25  1  0  0  0  0
 26 27  1  0  0  0  0
 26 28  1  0  0  0  0
 29 30  1  0  0  0  0
 29 31  1  0  0  0  0
 32 33  1  0  0  0  0
 32 34  1  0  0  0  0
 35 36  1  0  0  0  0
 35 37  1  0  0  0  0
 38 39  1  0  0  0  0
 38 40  1  0  0  0  0
 41 42  1  0  0  0  0
 41 43  1  0  0  0  0
 44 45  1  0  0  0  0
 44 46  1  0  0  0  0
 47 48  1  0  0  0  0
 47 49  1  0  0  0  0
 50 51  1  0  0  0  0
 50 52  1  0  0  0  0
 53 54  1  0  0  0  0
 53 55  1  0  0  0  0
 56 57  1  0  0  0  0
 56 58  1  0  0  0  0
 59 60  1  0  0  0  0
 59 61  1  0  0  0  0
 62 63  1  0  0  0  0
 62 64  1  0  0  0  0
 65 66  1  0  0  0  0
 65 67  1  0  0  0  0
 68 69  1  0  0  0  0
 68 70  1  0  0  0  0
 71 72  1  0  0  0  0
 71 73  1  0  0  0  0
 74 75  1  0  0  0  0
 74 76  1  0  0  0  0
 77 78  1  0  0  0  0
 77 79  1  0  0  0  0
 80 81  1  0  0  0  0
 80 82  1  0  0  0  0
 83 84  1  0  0  0  0
 83 85  1  0  0  0  0
 86 87  1  0  0  0  0
 86 88  1  0  0  0  0
 89 90  1  0  0  0  0
 89 91  1  0  0  0  0
M  END
