  222

 H         -0.5425054111       -1.1597996586        0.9180873601
 C         -0.6112510050       -0.5412956742        0.0100749182
 H         -0.5391308395       -1.1969144471       -0.8712436602
 C          0.5103658647        0.5037878336       -0.0094871837
 H          0.3911098456        1.1518924074        0.8600966290
 H          0.3944399221        1.1152669956       -0.9056411627
 O         -1.7891825171        0.2100258093       -0.0077307041
 H         -2.5646581756       -0.3620747640        0.0026734602
 N          1.8637421187       -0.1172780948        0.0059475209
 H          1.9871272141       -0.7237037739       -0.8163106225
 H          1.9839787968       -0.6890763205        0.8531041598
 H          2.5930828885        0.6072400317       -0.0077051379
 O          2.0700602071        2.7962673250        1.3178873746
 H          2.2171354533        2.7320714207        0.3578757339
 H          1.7832760165        3.7252704296        1.4764882015
 O          2.9920075515       -1.6887161446        1.8571332144
 H          2.8811827145       -2.4091118583        2.5114021726
 H          3.5970128885       -1.0293807747        2.2627046158
 O          1.8362545176       -2.0076344531       -1.8462539937
 H          1.0008085316       -2.1206053159       -2.3464885502
 H          1.8917070573       -2.7853435382       -1.2400413178
 O         -0.8895633032        4.3348902870        0.4369848441
 H         -1.7852793074        4.6819782840        0.3787871840
 H         -0.5231055514        4.3029809388       -0.4797407267
 O          1.9057185160        0.6798231041        3.1367460264
 H          1.9554367563        1.4247720907        2.5190090985
 H          1.4874231813        1.0146334811        3.9603887079
 O         -1.6185300442        2.0044599410       -2.0345203037
 H         -1.7692785908        1.4231046747       -1.2685131439
 H         -2.3864078185        2.5996899343       -2.0954137369
 O         -4.1960765081       -0.7790455129        0.7846229162
 H         -4.7849960162       -0.1010110169        1.1763277829
 H         -4.7970571300       -1.4752693224        0.4482297445
 O          0.5256510658       -3.8872158849        1.8535122148
 H          0.5330654143       -2.9746886051        2.2035854208
 H         -0.3965089747       -4.0036833410        1.5541592674
 O          1.2793404362        0.7615741003       -5.0781129417
 H          1.4474622660       -0.1322355798       -5.4284057723
 H          1.9805446783        0.9016379196       -4.4153850858
 O          1.9614299157       -4.1726177912       -0.3547197860
 H          1.5235085644       -4.7669479272       -0.9754289108
 H          1.4348790286       -4.1347053072        0.4793306876
 O         -0.4405878003       -2.5074755887       -3.1490737393
 H         -1.2014570072       -2.7430935754       -2.5744489934
 H         -0.6345789366       -1.5881769012       -3.4398330871
 O          4.2295189664        1.1884027072        0.1091421891
 H          4.7962475544        0.7439475369       -0.5492172804
 H          4.6502802013        2.0584335992        0.2754818665
 O         -0.8876206260        0.0182261470       -3.7341678735
 H         -1.1429510468        0.7854970994       -3.1870237199
 H         -0.1323664895        0.3232440118       -4.2840112990
 O         -4.7739462509        1.5147995829       -0.8610688650
 H         -4.3475807365        1.5933486610        0.0159692267
 H         -4.4615486224        0.6621181858       -1.2542013035
 O         -3.3211862386        1.9636278079        1.3405093214
 H         -2.5221525044        1.4402308433        1.1900731266
 H         -3.6428940746        1.7914167023        2.2461621121
 O         -0.6033124658        2.6096032150        2.5017805062
 H          0.1678516050        2.9438065690        2.9994108323
 H         -0.6393573518        3.1299999716        1.6761220233
 O         -1.9983737016       -3.5331482948        1.0614570454
 H         -2.2537708435       -2.9274475866        1.7875060055
 H         -2.6417211425       -4.2774278225        1.0960166278
 O         -4.0417223801       -0.7348670902       -1.9733491634
 H         -4.9477860328       -1.0904390203       -2.0543646883
 H         -3.7795513311       -0.5368002363       -2.9132481374
 O         -3.4489768870       -0.2555857693       -4.4632013003
 H         -2.4741577038       -0.2949723272       -4.4172184284
 H         -3.6315736409        0.6900386194       -4.6198213804
 O          2.3328997479        2.7160163539       -1.3532659963
 H          2.5618761157        2.0284583525       -2.0195485682
 H          3.0879458049        3.3476964852       -1.3847310113
 O          3.1921434523        1.0119306133       -3.1579239996
 H          3.9874616851        1.5286139329       -3.3710798895
 H          3.5289699222        0.2177610544       -2.6884661606
 O          4.2918295302       -2.8547586207       -0.0532872580
 H          3.7432822049       -3.6184950238       -0.2738542318
 H          3.7975262514       -2.4077283888        0.6842910675
 O          4.4426145175       -0.8742145133       -1.8230481667
 H          5.0827645357       -1.2330894161       -2.4506570004
 H          4.3197950052       -1.5923387656       -1.1694258517
 O          5.5881823876        3.3770816239        0.8629624839
 H          6.4939283104        3.0411273068        0.9324644694
 H          5.2288735711        3.4297875391        1.7713054414
 O          4.6598640665        0.2689690831        2.5680570849
 H          4.5203251129        0.5924058959        1.6497491735
 H          5.5996726458        0.0257168593        2.6238593542
 O         -2.4529426464       -2.8383539482       -1.4520799105
 H         -3.0094267369       -2.0345112645       -1.5448254268
 H         -2.2503292885       -2.9918456079       -0.5022161570
 O          0.2818959562       -1.4139737692        2.8903413953
 H         -0.3775455035       -1.1836371500        3.5475840360
 H          0.9643245005       -0.7133290076        2.9427037303
 O          7.2776172950       -0.3819178713        2.3769855573
 H          7.7476274045       -0.6476375301        3.1675532639
 H          7.1028648991       -1.2102359593        1.8666160296
 O          6.5290828397        0.8472786323       -1.2584649908
 H          6.8793826939       -0.0585744727       -1.3205274670
 H          7.0367724234        1.2843558996       -0.5447959086
 O         -5.9718529651        0.9260347782        1.8383093651
 H         -6.7732294722        0.5354536036        1.4384804924
 H         -6.0322945630        1.8840997590        1.6841426001
 O         -7.2160761172        2.3989241359       -1.2134631664
 H         -7.0416444794        2.8847089611       -2.0467822616
 H         -6.3586549251        1.9420569549       -1.0369639547
 O         -6.6395535966       -1.4876285354       -2.2508923166
 H         -7.3863214249       -0.8691755034       -2.1824929549
 H         -6.7079122577       -2.0825772390       -1.4951428900
 O         -1.6696565027        0.5025237129        3.9000871656
 H         -2.5192520246        0.8985054447        4.1516363154
 H         -1.2702774188        1.1373868331        3.2779311205
 O         -5.9514948046       -2.7112735015        0.1837678447
 H         -5.7844579424       -3.0511441676        1.0932475171
 H         -5.5273702438       -3.3582362712       -0.4320840441
 O         -4.7001352252       -4.2903723412       -1.5391784363
 H         -3.7931885913       -3.9132733814       -1.5415116572
 H         -4.9983299207       -4.1320279206       -2.4469996223
 O         -3.6738897852        4.5171511624        0.6743410757
 H         -3.4992840035        3.5805467412        0.9157917519
 H         -4.6141395022        4.6279224252        0.8646604245
 O         -2.9363060211       -1.7817924911        2.8564846910
 H         -2.4798656169       -1.0785105532        3.3398435977
 H         -3.4111672010       -1.3320026802        2.1177640330
 O          4.0829099576        2.9152439851        3.0829454536
 H          4.3211213075        1.9808937869        3.2077754188
 H          3.4010824670        2.8973714315        2.3791542103
 O          0.9944116491       -4.8429534002       -2.8853279789
 H          0.4513208393       -5.5955943635       -3.1149082546
 H          0.4570784510       -4.0561203168       -3.0790427743
 O          2.6750322106       -3.7298534772        3.5908200996
 H          1.8865870074       -4.1204421210        3.1884996982
 H          2.3959134702       -3.1865992776        4.3355399669
 O         -3.9973569037        1.8964986764        3.9521525759
 H         -4.8910735400        1.9393362328        4.2906454335
 H         -3.6252869399        2.8133565602        3.9490746373
 O         -5.2666778519       -3.3208375039        2.6854442618
 H         -4.3895398719       -2.9748168102        2.9140963599
 H         -5.8816773163       -2.7149471607        3.1437729450
 O         -3.9828888328       -5.2883140466        1.0549477864
 H         -4.6155953135       -4.9255490445        1.6876153986
 H         -4.3880614973       -5.2602899250        0.1789573473
 O          6.5905404417       -2.6971510287        1.2917055575
 H          6.2741147699       -2.8905688605        2.1947425682
 H          5.7903562212       -2.8196155708        0.7397786715
 O         -7.8822343873       -0.7207018735        0.8080940119
 H         -7.3133485411       -1.4830080063        0.6250672190
 H         -8.2891545342       -0.4773162816       -0.0361734024
 O         -4.9494568426       -2.9065192979       -3.9596795644
 H         -4.3801593520       -2.2674550104       -4.4000616956
 H         -5.7274577188       -2.4117324282       -3.6730321403
 O          7.5468681645       -1.6979530770       -1.1843847949
 H          7.0951579435       -2.1851317155       -1.8885509726
 H          7.3419842953       -2.1535705602       -0.3558291955
 O         -3.7826917157        3.6666276581       -1.9483505913
 H         -3.6763757399        4.2459305569       -1.1746568726
 H         -4.2321624994        2.8598499471       -1.5869213083
 O          5.3058235313       -2.7447158348        3.6875925141
 H          4.8009920068       -2.0249083114        4.0974178411
 H          4.6921405249       -3.4870245700        3.6831854632
 O         -8.6579279916        0.2468303480       -1.6780727552
 H         -9.4270194312        0.4125494492       -2.2224363393
 H         -8.1710403674        1.1043291522       -1.5813287141
 O          3.2434022039       -1.1301458205        4.7828427919
 H          2.9569398109       -0.4534773997        4.1459739474
 H          3.1924200012       -0.7188318056        5.6449635497
 O          1.4454847549        3.7114678923        3.9945363623
 H          2.3853533073        3.4717417385        3.9833213023
 H          1.3996988076        4.5625054578        3.5390921870
 O         -6.7368934656       -1.2025061883        3.5123388419
 H         -6.2988574695       -0.4120275615        3.1643190955
 H         -7.5984612164       -1.2274852490        3.0889211484
 O          4.4670538762        4.2808105057       -1.4597976082
 H          4.9520168011        4.1454757360       -0.6276413667
 H          4.9427950737        3.7727960465       -2.1397438485
 O          5.5628238927        2.3986484962       -3.1518079338
 H          5.9650960946        1.8045617592       -2.4710954262
 H          6.2383469779        2.5624694751       -3.8090359758
 O         -6.1467076437        3.4891178121       -3.3949451328
 H         -5.3544980192        3.8801292597       -2.9944668526
 H         -5.8297978086        2.9754296866       -4.1423667164
 O          0.1482257264        4.0536127990       -1.9974483003
 H          0.9847198740        3.5804404552       -1.7880786350
 H         -0.4814378114        3.3427384829       -2.2138854972
 O          2.2368264517        5.8825285343       -0.7428739134
 H          3.0808109545        5.5426102124       -1.0658903022
 H          1.5616110535        5.6078714139       -1.3702419725
 O          1.2824634563        5.3066463759        1.7098536630
 H          1.7677585548        5.7177835158        0.9705844398
 H          0.3803818338        5.1874340527        1.3647495593
 O         -6.2771146175        3.6394989850        1.1536312166
 H         -7.0592130048        3.7373991036        1.7038060307
 H         -6.6210173783        3.4212897941        0.2711737257
 O          7.8770036387        1.8105431963        0.8656223397
 H          7.6664052431        1.0978505719        1.4964195265
 H          8.7105090465        1.5308955925        0.4579484528
 O         -2.6865218766        4.1246671002        3.4739587930
 H         -1.8851907890        3.6434271506        3.1882085770
 H         -2.9958514406        4.6099409647        2.7011371065
 O         -3.4222674524        2.4706453010       -4.5661575161
 H         -3.5021536279        3.0315749562       -3.7870697605
 H         -2.4970133749        2.5694446153       -4.8419287389
 O         -0.6584650746        2.8377825567       -4.7820997904
 H          0.0326942186        2.2485353775       -5.1125051526
 H         -0.2207275642        3.5793082871       -4.3584286859
 O          1.5990149624       -1.9320187816       -5.3526414820
 H          2.3370240720       -2.3897071242       -4.9183100254
 H          0.7942933740       -2.3120318702       -4.9901294890
 O          0.5923855792        1.3821245984        5.3382029122
 H         -0.3012149715        1.0935015000        5.0963549282
 H          0.6144911456        2.3445493955        5.2917594794
 O          3.3519461041       -3.2831059631       -3.6367754369
 H          2.9600988186       -2.6788379001       -2.9657141187
 H          2.8914064491       -4.1200719255       -3.5068061720
 O         -8.6093599194        2.1501865427        1.3309300931
 H         -9.0892966120        1.3380956189        1.4996521195
 H         -8.4757125848        2.2050740290        0.3778757342
 O          5.9564646570       -2.6022132980       -3.3400555213
 H          5.0708264693       -3.0060905737       -3.4564538018
 H          6.3497742711       -2.5568372850       -4.2112051385
 O          9.5618297502        0.1160077128       -0.4539732625
 H         10.4033779129       -0.3184635781       -0.3232852826
 H          8.9524036670       -0.5578022621       -0.7914703253
