  311

 H          0.4630927076        1.1941025328        0.8323452958
 C          0.5529035761        0.5095402430       -0.0251092077
 H          0.4633421182        1.0989800596       -0.9466436098
 C         -0.5779259333       -0.5149488604        0.0205351876
 H         -0.4518492549       -1.1270258236        0.9278134321
 H         -0.4840892691       -1.1748678656       -0.8448928486
 N         -1.8603253885        0.1647702475       -0.0623309410
 H         -2.6131021662       -0.5138473280       -0.0751527666
 H         -1.9956541839        0.7570092262        0.7508171932
 O          1.7808081027       -0.1833448059        0.0209869107
 H          2.5006908393        0.4507195084       -0.0567171281
 O         -2.7812666044        2.1179410038       -1.5389550904
 H         -2.3118131983        1.2870300352       -1.2549402925
 H         -3.1885486004        1.9626914614       -2.4069977571
 O          1.8782198360       -2.5676805808        1.3377095404
 H          2.2245614377       -3.3900484161        1.7332308515
 H          1.1750795316       -2.8697033652        0.7261116311
 O          3.5980225082        1.8269391865       -0.3759460181
 H          3.7671554620        2.4640749736        0.3438144656
 H          4.3373692193        1.9434524035       -1.0114554604
 O          3.3520924442       -0.4256503633        2.1743077012
 H          2.8703852887       -1.2150989246        1.8644697834
 H          2.7043743709        0.2985056209        2.1942871890
 O         -4.2113589657        2.0505026526        0.6814488048
 H         -3.6651806499        2.1136307839       -0.1339265743
 H         -3.7329415838        2.5509857147        1.3633604494
 O         -3.9097769276       -0.1383578109        2.2706923408
 H         -4.0826643490        0.5731280845        1.6240252132
 H         -4.4497909691       -0.9055569853        1.9959915584
 O         -2.4623993259        3.0041200981        2.5017921062
 H         -1.9449527437        2.1786460648        2.5474418442
 H         -2.8047806552        3.1179909886        3.4168697141
 O          0.7294715522       -1.0476866349        3.2017791106
 H          0.9851168482       -1.6590055677        2.4807026484
 H          1.5325060583       -0.9380859006        3.7426413899
 O          2.1289877886        1.9709322893        2.5180614811
 H          2.9009292923        2.5146561450        2.3089330188
 H          1.3649562102        2.4960760871        2.2096588369
 O          0.2235915842        3.6089576592        1.5979922665
 H         -0.3867175650        3.8002500924        2.3253148500
 H         -0.2556793249        3.6262964266        0.7439504316
 O         -1.3364073509        0.6004156319        2.9365571638
 H         -2.1189088961        0.0333715564        2.8120389009
 H         -0.5689634532       -0.0049554987        2.8649949534
 O          3.8406322109       -0.4800041399       -2.3847646719
 H          3.0245394227       -1.0175510752       -2.2441444692
 H          4.2272105579       -0.3637242953       -1.4899688857
 O         -1.7449545067       -2.1617835242        2.3926134058
 H         -2.1026395310       -2.3144281151        1.5061566530
 H         -2.5046736200       -2.3212224202        2.9834089452
 O         -0.5382514062        1.3319563432       -2.9295103875
 H          0.1244390752        0.7277118437       -3.3084214391
 H         -0.9012894075        1.8658703495       -3.6633489553
 O         -2.2576652374       -0.6425372845       -2.6931794374
 H         -1.6219765822        0.1159788627       -2.7385312017
 H         -1.7059282362       -1.4347161034       -2.5506760243
 O          1.9167156216       -2.1573838159       -1.7685679444
 H          2.4825463075       -2.9229922713       -1.5531130031
 H          1.7497934512       -1.6616859986       -0.9443797974
 O          2.3127254155       -4.9229677357        2.5056219484
 H          2.9365666632       -4.6414243164        3.1831809398
 H          1.4096504620       -4.8034867060        2.8645952717
 O         -0.8027098953       -2.8588985227       -2.4961148191
 H         -0.2680904181       -3.2164325899       -3.2344109876
 H         -0.4193463489       -3.2216239475       -1.6688715151
 O         -4.6169920591       -0.2946860626       -1.3889811853
 H         -3.7220786623       -0.3768693848       -1.7733352245
 H         -4.9970885127        0.5153211441       -1.7634760273
 O         -3.1639441916       -2.7864688012        0.1283079408
 H         -4.0511176073       -2.6404488281        0.5136421042
 H         -3.3019448309       -3.1434509631       -0.7753703308
 O         -0.8017857536        3.7385816093       -0.8992525458
 H          0.0575538900        3.4253074462       -1.2509911124
 H         -1.4630702304        3.0592982379       -1.1663093008
 O          1.6234015517        2.9943455896       -1.6934060908
 H          2.3305769377        2.4993330857       -1.2257614176
 H          1.6277574269        2.7158689143       -2.6285844868
 O         -5.4554160093       -2.1325209929        1.3309631913
 H         -6.1361838876       -2.1190976544        0.6236929637
 H         -5.8411033171       -2.6762949025        2.0401336353
 O          0.1044754099       -3.8394493869       -0.1735610485
 H          0.7330563187       -4.5724425814       -0.3390935365
 H         -0.6432889285       -4.2486690095        0.3052480071
 O          4.8884227007       -0.6213554088        0.0344975976
 H          5.1400981334       -1.5440812188        0.2337137356
 H          4.2521118327       -0.4158648424        0.7547840564
 O         -2.7939234576        4.8840560219        0.5813521661
 H         -2.0303378389        4.8795943176       -0.0098045206
 H         -2.5598189461        4.2669660146        1.2970853943
 O         -5.7881443199        2.2788604360       -1.5834578032
 H         -5.4962558738        2.2267421417       -0.6594696774
 H         -5.2961230013        3.0425583683       -1.9418109261
 O         -6.4823637550        0.4396045731        0.5734817229
 H         -6.2363764709        1.2077358600        1.1229597657
 H         -5.6893125353        0.0779612559        0.1528202831
 O          2.2290623893        5.4096717860        1.2839594333
 H          1.4524501837        4.8254474665        1.3891043238
 H          2.2317799086        5.6565604739        0.3331552293
 O         -4.1300003138        1.5024608015       -3.9430335475
 H         -5.0918770530        1.4855589091       -3.8796511611
 H         -3.8974052805        0.6950211030       -4.4445168558
 O          5.5400374049        2.3114551423       -2.1205105432
 H          6.2492902098        1.6433003711       -2.0298780878
 H          5.1392532806        2.1468965704       -2.9939645394
 O          4.1104108521        3.6390879128        1.5344642405
 H          3.4845602259        4.4026469164        1.4001081246
 H          4.9854542163        3.8930064382        1.1677721518
 O          4.9860011577       -3.0958641510        0.9938029573
 H          4.6609286108       -3.0922876849        1.9157803693
 H          5.7379758633       -3.7074978139        0.9356365003
 O          4.1331072239        1.3649915028       -4.2455825763
 H          3.3461699797        1.9494097177       -4.3000880531
 H          3.9270467573        0.7123032795       -3.5365262670
 O         -0.3086457394       -4.3113308344        3.0832009187
 H         -0.8145554396       -4.9043930857        2.5124464936
 H         -0.6568426651       -3.4194371174        2.8433558177
 O          5.4643910148        0.7551619608        3.2773041050
 H          5.1915910007        1.5524406638        3.7583054100
 H          4.6516735448        0.3084733343        2.9752519136
 O          4.2234399977       -2.9671802143        3.6176152881
 H          5.1194935430       -2.6577369657        3.8606416798
 H          3.6340051872       -2.3166324865        4.0224199123
 O          4.7694641913        3.2599352268        4.1096065972
 H          4.0489412472        3.7204757420        4.5550327738
 H          4.6041794769        3.4517417653        3.1624855918
 O         -6.3501096504        2.3392655983        2.4970603615
 H         -5.9059027258        1.9551346031        3.2751036325
 H         -5.9268812585        3.1854191663        2.2930475139
 O          3.8496943864       -3.9465998391       -1.2698267982
 H          4.2226780691       -3.6128019611       -0.4256456885
 H          4.4164982282       -3.6083796195       -1.9872533577
 O         -4.4723691632       -5.0175370903        2.3311590915
 H         -3.5979400524       -5.3544805355        2.0904396442
 H         -4.2869534020       -4.2300619674        2.8832204565
 O         -3.2528924855       -3.7953610912       -2.3544450046
 H         -2.3450849718       -3.4752870743       -2.5520892904
 H         -3.8815644750       -3.2706678086       -2.8770251297
 O         -5.2207413254       -2.1374322614       -3.2412916977
 H         -5.0630139786       -1.6117010713       -2.4280502852
 H         -5.8577384171       -2.8463447983       -2.9785101622
 O         -7.4910513374       -2.2453424638       -0.3790084487
 H         -8.1796328962       -2.4252794383        0.3031942074
 H         -7.7468459779       -1.4123898103       -0.8256118032
 O         -4.9633434254        0.9616697992        4.4110117802
 H         -4.5076263936        0.4966385949        3.6625390444
 H         -5.4214435449        0.2634076404        4.8884646031
 O         -3.2105617684        2.9212261222        5.0471409183
 H         -2.4813794053        2.4427316671        5.4610631886
 H         -3.9284781288        2.2666184768        4.9556587915
 O         -6.1717440857       -1.6073815918        4.6088529006
 H         -6.6989881607       -1.1415091617        3.9294915050
 H         -6.5430306038       -2.4954848054        4.6012101051
 O         -1.8126612167        2.7661125829       -4.8167774780
 H         -2.7109150303        2.4273891136       -4.6849556729
 H         -1.7936742363        3.6326603048       -4.3634087119
 O          6.6645591516        3.7803385544        0.8435291489
 H          6.9570076806        3.7378802671        1.7851280532
 H          6.6539617021        2.8407499354        0.5766410596
 O          6.6752596831        1.0628763320        0.8971780008
 H          6.3599470772        1.0704530229        1.8286007624
 H          5.9990118008        0.5427185842        0.4021159167
 O          0.8984797214       -0.7367718264       -3.7997820695
 H          1.1480158382       -1.3835296308       -3.1193495846
 H          1.6275185747       -0.6814151133       -4.4413449726
 O         -8.0914186171        0.1086502962       -1.5509775988
 H         -7.5424687838        0.4776437150       -0.8328006274
 H         -7.5629620814        0.1929105954       -2.3704821693
 O         -1.8662689481        4.9123047845       -3.1581523053
 H         -1.4268669998        4.5893817091       -2.3494199001
 H         -2.8082175668        4.9450782522       -2.9347826793
 O         -4.3777296244        4.5988223580       -1.8325709239
 H         -3.8474699476        4.5989728680       -1.0224041319
 H         -5.2140130118        5.0389685636       -1.5800523627
 O          5.3497281766       -2.5172716486       -3.0849913381
 H          6.1139735350       -2.5012450220       -2.4803943641
 H          4.8170074521       -1.7181340932       -2.8429100428
 O          2.0316003470       -5.6943916814       -0.2923618115
 H          2.7631470110       -5.1992631875       -0.6974333162
 H          2.2069209918       -5.7018211617        0.6581841129
 O         -2.0265142058       -5.0448138851        0.9844752094
 H         -2.1553100784       -5.6258761756        0.1974893995
 H         -2.5124840725       -4.2181286474        0.7512722792
 O          7.2962432596       -2.1774737726       -1.2238558487
 H          7.3725279887       -2.0721393226       -0.2550115057
 H          7.3888403100       -1.2669178836       -1.5631265260
 O          7.3776772201        0.3624086872       -2.1945844766
 H          8.2775458082        0.6815569570       -2.0717056753
 H          7.2204204440        0.1543198716       -3.1466914313
 O          9.1719277631        1.2099811954       -0.2614522663
 H          8.2573998621        1.1335582130        0.0659508049
 H          9.4625641507        2.0895782036        0.0576519070
 O         -0.7020314812        1.5626773737        5.3147170620
 H         -0.9516543206        1.1613933238        4.4481497973
 H          0.2715632441        1.4907532894        5.3680260108
 O         -0.4741287942        4.0559152704        4.2746497378
 H         -0.5699189447        3.1744459906        4.6994461016
 H         -1.1809645553        4.5956753935        4.6282923749
 O          2.0055105901        1.6374549061        5.1315118968
 H          2.0431356580        1.7484274263        4.1473758940
 H          2.3242511076        2.4692551714        5.4863028353
 O          7.6550701781       -1.5068389797        1.3694227410
 H          8.6173171633       -1.4462873496        1.4661677469
 H          7.3573097889       -0.5845533887        1.2516120826
 O         -2.4330908531       -6.1754174920       -1.3632330463
 H         -1.5532564810       -6.2511052034       -1.7662638714
 H         -2.8345613384       -5.4129489790       -1.8178601499
 O         -6.6580716352        0.0925639796       -3.8788296691
 H         -7.4223706691       -0.2337270342       -4.3634825955
 H         -6.1185099952       -0.7153192800       -3.7416481206
 O          2.3147619263        5.5508434303       -1.4118354143
 H          2.0384748273        4.6110880170       -1.4974226218
 H          3.2816610582        5.5246739039       -1.4754059081
 O         -6.6843419766        5.2843389643       -0.6195026921
 H         -6.3790895890        5.1224807391        0.2849927396
 H         -7.4042622229        4.6554636683       -0.7706469251
 O          2.6185556070       -1.0368162195        5.1259283839
 H          1.9562617304       -1.4090270532        5.7193520798
 H          2.6098613802       -0.0774814195        5.2813259849
 O         -0.2877709936       -1.3752386880        5.6858079672
 H         -0.1062793163       -1.3690990784        4.7249827570
 H         -0.6575567094       -0.5112006399        5.8927474452
 O          2.7190431377       -0.3525201435       -5.8090239105
 H          2.0494403039        0.1164960046       -6.3169030136
 H          3.3254519631        0.3219949612       -5.4504037440
 O         -7.7599428870       -0.4804490435        2.7262223770
 H         -8.3722264004        0.2546472705        2.8200557033
 H         -7.2565029485       -0.2814763992        1.9048056926
 O          2.2668504514        4.4881064036        4.1895550464
 H          1.3041551393        4.3821485780        4.2638092651
 H          2.3954163939        5.0523941089        3.4204739411
 O         -8.2908640431        3.0119272098       -0.9864779460
 H         -7.4138614407        2.6668164287       -1.2761831064
 H         -8.9324558520        2.6547476377       -1.6014163536
 O         -9.2170574478       -2.4579390820        1.6055132225
 H         -8.7094877389       -1.8737871460        2.2040885462
 H         -9.8498399071       -1.8458851760        1.1861934475
 O          0.5633183010       -3.8087016244       -4.5732447864
 H          0.1468745364       -3.3280415002       -5.2986971778
 H          1.5109519816       -3.5755761586       -4.6124720685
 O         -3.8462717160       -2.8688580190        3.8694500819
 H         -3.2710621473       -3.1920616404        4.5975972665
 H         -4.5787270655       -2.3502581117        4.2425202315
 O         -8.9172892939        1.9938750200        1.5495807353
 H         -8.0842487292        2.1898147854        2.0058788306
 H         -8.8139048160        2.4165282915        0.6811192467
 O          6.4626716685       -0.3237072107       -4.5711319702
 H          6.0990824030       -1.1945058778       -4.3479877337
 H          5.7117447746        0.2703841705       -4.6964996927
 O         10.1492373738       -0.4636556001        1.5120154702
 H         11.0819689072       -0.6388701040        1.4020577957
 H          9.8837338950        0.1558513531        0.7809245187
 O          1.7824067786        2.5868855779       -4.3536091682
 H          1.5260213754        3.5298563013       -4.4094894113
 H          1.2108980487        2.1001590708       -4.9780882189
 O         -3.3904891944       -0.9026154641       -5.0064427754
 H         -4.1276925465       -1.5104670351       -4.8946919984
 H         -2.9464977124       -0.8761343608       -4.1176126886
 O          3.1051293214       -2.9475634248       -4.8201723330
 H          3.0790799616       -2.1171641469       -5.3144333554
 H          3.9333967167       -2.9662920346       -4.3304179702
 O          0.0726207399       -5.8401947415       -2.4899623889
 H          0.3262813951       -5.3230669214       -3.2634434470
 H          0.8601761839       -5.9863564879       -1.9572333680
 O         -0.7587945693       -1.3954207652       -5.8082813859
 H         -1.7125061210       -1.2812069828       -5.6781477027
 H         -0.3303214149       -1.2601196386       -4.9400688942
 O         -5.2679230177        4.8018508904        1.7693941543
 H         -5.2632455362        5.4644318226        2.4592414594
 H         -4.4349126325        4.9023479709        1.2788573369
 O        -10.1382333924       -0.2245610071        0.3598610725
 H         -9.8726326356        0.5339592872        0.9042980982
 H         -9.6311477810       -0.1261413526       -0.4559196348
 O          9.4395920443        3.5750240795        0.9454228347
 H          9.3424912468        3.4215744258        1.8905294805
 H          8.5952202075        3.9584250456        0.6638347584
 O          0.9604064142        5.1225518033       -3.9467376251
 H          1.3849017535        5.4957152388       -3.1600324121
 H          0.0103470557        5.2283918758       -3.8260756534
 O          7.4912933320        3.2611072435        3.3054700885
 H          7.8245926693        2.3489949198        3.3936490982
 H          6.6984575001        3.3104725531        3.8554672924
 O          6.5977538428       -1.6536481241        3.8925106780
 H          6.9666534568       -1.8144364983        3.0053639461
 H          6.1704766280       -0.7815393753        3.8345367395
 O          8.4914018161        0.7117702824        3.4388822430
 H          8.0722930839       -0.0256655998        3.8947663657
 H          9.1754145788        0.3338759403        2.8663891070
 O         -6.8106035186       -3.9852997108       -2.2463856308
 H         -6.2033326362       -4.5814616911       -1.7813876038
 H         -7.1538624122       -3.4196261445       -1.5211001153
 O         -6.9220617236       -3.7800997736        2.9588734560
 H         -6.4046206034       -4.5637081440        2.7398881292
 H         -7.7492553062       -3.8158090308        2.4680749420
 O         -5.1425878773       -5.1367039547       -0.3589326284
 H         -4.4929231883       -5.7777002120       -0.6564389578
 H         -5.0188495115       -5.0495570623        0.6017793868
 O          4.9822215814        4.8600614560       -1.2113060397
 H          5.1996140585        4.0187162038       -1.6419676213
 H          5.7098062624        5.0305667383       -0.6088774698
 O          0.1773189789        1.1965903549       -6.0847131011
 H         -0.1753075027        0.2847249970       -6.1235823786
 H         -0.5875203129        1.7680952099       -5.9317185654
 O         -1.8189799069       -3.6563734408        5.3867804962
 H         -1.2640831307       -4.0784484254        4.7111605819
 H         -1.3156090707       -2.8742406252        5.6689756911
 O         -8.4238866822       -2.0611117097       -3.7230058278
 H         -8.0036228110       -2.8891801212       -3.4631195163
 H         -8.9371900361       -1.7700128361       -2.9661757232
 O          6.7782729775       -4.7579037241       -0.1902940574
 H          7.1695012092       -4.0433302094       -0.7098340570
 H          6.2274834029       -5.2665890288       -0.7892559611
