  87

 H         -0.5425054112       -1.1597996585        0.9180873603
 C         -0.6112510051       -0.5412956740        0.0100749183
 H         -0.5391308395       -1.1969144470       -0.8712436601
 C          0.5103658647        0.5037878336       -0.0094871839
 H          0.3911098457        1.1518924072        0.8600966290
 H          0.3944399221        1.1152669956       -0.9056411629
 O         -1.7891825170        0.2100258093       -0.0077307040
 H         -2.5646581753       -0.3620747641        0.0026734602
 N          1.8637421187       -0.1172780949        0.0059475209
 H          1.9871272141       -0.7237037740       -0.8163106223
 H          1.9839787968       -0.6890763206        0.8531041602
 H          2.5930828886        0.6072400317       -0.0077051379
 O          1.7682499902       -1.8394336121        2.1059228655
 H          2.5003111370       -1.5435691282        2.6606976961
 H          0.9308489785       -1.7847571296        2.6248675638
 O          3.0595380090        1.9060638994       -1.4964675240
 H          2.4698866175        2.6652010960       -1.3485819696
 H          2.5975965178        1.3821447175       -2.1797472723
 O          2.6431871647       -1.9491477408       -1.7888481256
 H          3.5906474271       -1.8102509616       -1.6821463508
 H          2.4139352276       -2.7517544868       -1.2927157403
 O          0.9216161135        0.9375418688        3.2352617682
 H         -0.0423935151        0.8624297684        3.1560726313
 H          1.1385246373        0.7326164962        4.1453863841
 O         -3.8522610950       -1.4155005990        0.3004785707
 H         -4.2581990986       -0.7849947134        0.9190104949
 H         -3.4170103436       -2.1141361946        0.8197313553
 O         -1.7953317722        0.8027227234        2.6167101167
 H         -1.7991973577        0.6918334099        1.6335887612
 H         -2.7346916882        0.8492290516        2.8377810122
 O          1.4614231770        0.3053706446       -3.0147850462
 H          1.6927141421       -0.6310144889       -3.0222428840
 H          0.5298386648        0.3509815960       -3.2658502654
 O          1.9970252289       -3.7318361025        0.1977079106
 H          1.9212582511       -3.1239286699        0.9617271387
 H          2.3553431916       -4.5570496966        0.5263069422
 O          4.7615002550       -0.3392879300       -0.7309442748
 H          4.4418890325        0.3778767392       -1.2919794407
 H          5.6316159234       -0.0611295048       -0.4158905085
 O          1.7540430290        3.1631063054        1.9290810332
 H          1.4838673398        2.3825692374        2.4509429233
 H          2.7103985051        3.0708648481        1.8208600367
 O          4.1320820323       -0.4442238977        2.0438911666
 H          4.0118449345        0.5156897719        1.9906250933
 H          4.3560249533       -0.7208322211        1.1440191375
 O          1.1933483732        3.7488482471       -0.6142494025
 H          1.2991461532        3.5316112086        0.3419018441
 H          1.2744412740        4.7015841573       -0.6802527437
 O         -4.3995960500        0.8854573016        1.7189995068
 H         -3.9774512377        1.5192123235        1.0979568517
 H         -5.3355360675        1.0897361852        1.6974655406
 O         -3.1352023765        2.7413656381        0.1537104360
 H         -2.6259471344        3.2559484006        0.7981233663
 H         -2.4718119395        2.4414538410       -0.4909207905
 O         -3.9518507928       -0.3501434224       -2.3323379236
 H         -4.0042282883       -0.9698173811       -1.5942988528
 H         -4.4993090229        0.4057961319       -2.0619237266
 O         -1.1094388976        2.7667593874       -1.7598878308
 H         -1.3958353286        3.3751934225       -2.4427621647
 H         -0.3203562496        3.1562787863       -1.3396254638
 O         -1.4464653979        0.2731777283       -3.0482774753
 H         -2.3875245332        0.0216560455       -2.9100007865
 H         -1.3416173734        1.0664417107       -2.5030046240
 O         -2.2020355235       -3.2436373960        1.5214150877
 H         -1.6541894105       -3.4418151532        0.7176823088
 H         -2.6092531111       -4.0752531298        1.7681225016
 O         -0.6930559453       -3.7981981259       -0.5704864552
 H          0.2485369973       -3.8714113393       -0.3537335474
 H         -0.7290509325       -3.3107277875       -1.4122286513
 O          4.1889382874        2.1635017596        1.0338756431
 H          5.1490485986        2.0689662414        1.0772382601
 H          3.9701242601        2.2284585363        0.0913696455
 O          6.6240852687        0.7270881996        1.1249682627
 H          7.5675832380        0.8009205701        1.2769434461
 H          6.2585910313        0.1811665223        1.8340751833
 O         -0.5091909625       -2.2644665405       -2.8658222194
 H         -0.7814673728       -2.7526302161       -3.6433915633
 H         -0.8804503922       -1.3635476149       -2.9685317038
 O         -0.6565118812       -1.7343634031        3.2224093797
 H         -1.1497669419       -0.9009952493        3.1726667605
 H         -1.2045247295       -2.3872173778        2.7502640819
 O         -5.3225510542        1.8288307905       -1.2765668177
 H         -4.6267267256        2.3235936503       -0.8181870266
 H         -5.7981711643        2.4477313252       -1.8310448078
 O         -1.1910109805        3.4898873898        1.9555087285
 H         -0.2777705083        3.7404958052        2.1160449345
 H         -1.3408668415        2.6518175999        2.4174321052
