  116

 H          0.4630927076        1.1941025328        0.8323452958
 C          0.5529035761        0.5095402430       -0.0251092078
 H          0.4633421182        1.0989800596       -0.9466436099
 C         -0.5779259334       -0.5149488604        0.0205351874
 H         -0.4518492549       -1.1270258237        0.9278134322
 H         -0.4840892691       -1.1748678656       -0.8448928487
 N         -1.8603253885        0.1647702475       -0.0623309409
 H         -2.6131021663       -0.5138473280       -0.0751527666
 H         -1.9956541839        0.7570092262        0.7508171932
 O          1.7808081027       -0.1833448059        0.0209869108
 H          2.5006908393        0.4507195084       -0.0567171280
 O          2.5833668511        1.0654405148        3.8751880577
 H          2.3120374737        0.2241511623        3.4596247050
 H          1.7619953374        1.4909182022        4.1856498281
 O          3.1344227406        2.8611595077        2.0405953863
 H          3.8429248976        3.3934918067        2.4021443929
 H          2.9692333252        2.1370097191        2.7069117377
 O          1.9112317327       -1.2140332221        2.5239385787
 H          1.8138511049       -0.8066044876        1.6377399358
 H          2.5867303350       -1.8850253810        2.3666303931
 O         -3.7376498568        3.0095763573       -0.1451951638
 H         -3.1829710241        2.7382353325       -0.9070949507
 H         -4.1173907078        2.1769490414        0.1948253613
 O         -1.7267211428        2.5542060041        1.6689240885
 H         -0.9039118328        3.0167396197        1.4268926364
 H         -2.4322146364        2.9330854915        1.1122758918
 O          0.6857273889        3.6601901699        1.0539675646
 H          1.5277299375        3.4516554789        1.4935883665
 H          0.8774801765        3.6042773638        0.1057042326
 O          0.2208825868        2.3550283676        4.2656943313
 H          0.0857454455        2.9866480029        3.5539383335
 H         -0.5976425086        1.8378287678        4.3283309694
 O         -0.7157180086       -1.5217617732        3.3260890667
 H          0.2339184143       -1.3232843489        3.2890700480
 H         -0.8013991576       -2.3134161645        2.7642546568
 O         -2.0591461571        0.8256371947        3.6848661111
 H         -1.5597730628        0.0038205932        3.5084838337
 H         -1.9400539697        1.4251462958        2.9185345647
 O          3.6284839447       -2.6181241017        0.7985754971
 H          3.7528580616       -1.9218113849        0.1202514520
 H          4.5045952994       -2.9808720135        0.9424803949
 O          3.5540481907        1.8017342921       -0.4150875069
 H          2.9578767579        2.3474591787       -0.9492362962
 H          3.5083958018        2.1556888771        0.4965219347
 O          1.5333748228        3.3659756053       -1.6367622291
 H          0.9779029806        2.8132428200       -2.2296207787
 H          1.5982358118        4.2252767631       -2.0540555453
 O         -4.5383000041        0.0788831221        3.3059962521
 H         -5.1415580383        0.4782850936        3.9315182150
 H         -3.6249628094        0.4126212386        3.5245319612
 O          4.3605432216       -0.8210838515       -1.1800530149
 H          3.8081748478       -0.9623362242       -1.9590662543
 H          4.2451747140        0.1169520000       -0.9618083849
 O          0.0658343150        1.7959307768       -3.2594551050
 H          0.0511750312        0.8573184300       -3.5281340512
 H         -0.8395534968        1.9371889253       -2.9040337566
 O         -2.3518050976        1.7725947943       -2.1124397685
 H         -2.1087718488        1.1049968602       -1.4079793357
 H         -3.1120651561        1.3896749553       -2.5841857390
 O         -4.7909030703        0.6429688204        0.6689984041
 H         -4.7747180312        0.3871860075        1.6095364925
 H         -4.5703004436       -0.1539092253        0.1508281130
 O          1.7926978702       -1.8982495471       -2.1201914526
 H          1.8236813090       -1.2243332629       -1.4151657394
 H          1.5676242094       -2.7193399941       -1.6536271611
 O          0.0717854475       -0.8662865120       -3.8028180220
 H          0.2562624666       -1.2301707100       -4.6685263510
 H          0.7398605971       -1.2716394211       -3.1855828853
 O          1.2703297899       -3.7515604708       -0.1642453700
 H          2.1302843965       -3.4773282120        0.1976850485
 H          0.6334104194       -3.6221805063        0.5579257419
 O         -2.3210150065       -1.8550725899       -2.7977621309
 H         -1.9454095493       -2.7075438485       -2.5141673094
 H         -1.5764252269       -1.3521812739       -3.1614228982
 O         -4.1302620571       -1.5454119061       -0.8874048732
 H         -3.4888895065       -1.5733751811       -1.6347477961
 H         -5.0047848547       -1.4582453966       -1.3326976185
 O         -0.7916923679       -3.6953249627        1.6760111792
 H         -0.7982003805       -4.5429998555        2.1219964427
 H         -1.6615128940       -3.6248120559        1.2030664985
 O         -3.1953683857       -3.5593659575        0.6323450348
 H         -3.5297396127       -3.2877941146        1.5098759396
 H         -3.5422854730       -2.8828570569        0.0129029237
 O         -3.7096979080       -2.5003324784        3.0681314185
 H         -4.1662768554       -1.6423578316        3.1308403423
 H         -2.8492652526       -2.3530214164        3.4728095955
 O         -1.2316791725       -4.0737311246       -1.6135970462
 H         -0.3521837926       -4.0868512325       -1.2163020358
 H         -1.8685800733       -4.2111339689       -0.9048258730
 O          6.3737388844       -1.3306508489        0.6384235889
 H          5.8508079551       -1.2959266494       -0.1774335131
 H          6.8844944854       -0.5107417862        0.6272198767
 O         -4.7970400534        1.0542167327       -3.1945082909
 H         -5.2590347654        1.7769316445       -2.6874008599
 H         -4.8657603000        1.2870461012       -4.1196217485
 O         -6.4131634147       -0.8784430940       -2.0455966510
 H         -6.8755668328       -0.2481153434       -1.4593433245
 H         -5.8936808565       -0.3144264090       -2.6445734441
 O         -7.3006632243        0.9205513656       -0.1683369409
 H         -7.8616209968        0.4005791888        0.4100332919
 H         -6.3981119057        0.8495102260        0.2238557669
 O         -6.5921348775       -1.6560467739        1.0454606945
 H         -6.0353337271       -2.2872921016        1.5051556414
 H         -6.6164604021       -1.9230527377        0.1217362214
 O          4.4939919553        0.2166728766        1.9055774728
 H          5.0514167061       -0.5454042499        1.6697313855
 H          4.3870040292        0.2313090514        2.8580504500
 O          6.3877493401        1.5609044679        0.4354080181
 H          5.6832411322        1.2598936602        1.0371175092
 H          5.9199144849        1.8817567836       -0.3388410037
 O         -5.9888129794        2.8990734291       -1.7455166139
 H         -5.2773540691        3.1716866492       -1.1347562781
 H         -6.6331981386        2.4128772203       -1.2146129554
 O          2.8629193062        0.7430371371       -3.0878972351
 H          3.3717754338        1.1844926561       -3.7664294679
 H          1.9676653726        1.0947847820       -3.1372063225
