  146

 H          0.4630927076        1.1941025328        0.8323452957
 C          0.5529035761        0.5095402430       -0.0251092078
 H          0.4633421182        1.0989800596       -0.9466436099
 C         -0.5779259333       -0.5149488604        0.0205351876
 H         -0.4518492549       -1.1270258238        0.9278134320
 H         -0.4840892691       -1.1748678656       -0.8448928488
 N         -1.8603253886        0.1647702475       -0.0623309407
 H         -2.6131021662       -0.5138473280       -0.0751527667
 H         -1.9956541839        0.7570092262        0.7508171932
 O          1.7808081027       -0.1833448059        0.0209869106
 H          2.5006908393        0.4507195084       -0.0567171282
 O         -1.6169546972        0.7110572461       -2.6747702212
 H         -0.9385627005        0.0900409256       -3.0103056168
 H         -1.7180121510        0.5471023706       -1.6965978077
 O          4.5599448462       -2.2840006151       -1.0010556096
 H          4.4141393736       -2.8706698951       -0.2213442233
 H          3.7018956081       -2.2498373312       -1.4666962946
 O          4.5232269509       -0.2061630970        0.7483843075
 H          5.0890947607        0.5015547724        0.3735990978
 H          4.5090755813       -0.9096994489        0.0691645496
 O         -4.1886396581        0.0591679572       -2.9578650662
 H         -4.4291559216        0.7339440502       -2.3027236882
 H         -3.2374887164        0.2305859643       -3.1077403426
 O         -3.2438287006       -2.3476549615       -1.7801702034
 H         -3.5929892743       -1.5375432553       -2.1904649083
 H         -4.0107936643       -2.9665273957       -1.7331049595
 O          4.0042833161       -3.5967320306        1.2497721781
 H          3.1288618375       -3.2317010795        1.5070858594
 H          4.6353939949       -3.2081543525        1.8805492263
 O         -1.1486539754       -3.2831739408       -3.2217633989
 H         -0.5905618722       -3.7749421794       -2.5956903744
 H         -1.9476231684       -3.0222499187       -2.7213399389
 O          2.0836445852       -1.9124696744       -1.9985154556
 H          1.9581165716       -1.2210375768       -1.3165176319
 H          1.6303789620       -1.5522653895       -2.7802360123
 O          0.6623277866       -4.0861105080       -1.3020852308
 H          1.1505420173       -3.2658499526       -1.5332811964
 H          1.3705141265       -4.7445612600       -1.1987489593
 O          5.3413410509       -1.7672683552        2.8026361787
 H          4.7920740594       -1.4791508394        3.5350158842
 H          5.1405825541       -1.1527964574        2.0621009699
 O          2.8131250231       -0.1683403088        2.8876492678
 H          2.3160001968       -0.9957949072        2.7956929658
 H          3.3267406333       -0.1031166393        2.0597028455
 O         -1.5532757365       -1.7551055511        2.9816884227
 H         -0.9950387475       -2.5126631716        3.1716445845
 H         -2.0806362292       -2.0144573355        2.1939356696
 O          1.6748357155       -2.3714330614        1.7832492573
 H          1.6485307246       -1.7361328201        1.0491500801
 H          0.9161025382       -2.9820644273        1.6453291374
 O          3.0802028439        2.2561355118       -0.1510266716
 H          3.3731876065        2.3918702039        0.7788252178
 H          2.4011394433        2.9355487001       -0.3269380697
 O          2.7115966359        0.9232923173       -2.6099472192
 H          2.8805398288        1.4385992116       -1.8097554339
 H          2.3017358022        1.5486046925       -3.2320901806
 O         -0.9780453627        3.2337534894       -2.7102474290
 H         -1.7502780384        3.5861200424       -3.1812357875
 H         -1.1438112066        2.2513899356       -2.7263221818
 O          1.2671800460        1.9933340878        3.1062454415
 H          1.7602379997        1.1443152520        3.0011980692
 H          1.9636565554        2.6532553926        3.1875886186
 O         -4.5079633843        1.9553829114       -0.9829589574
 H         -5.1918433299        2.2414833029       -0.3452019085
 H         -3.6756360526        2.3915927434       -0.6817433519
 O         -0.4501924528        3.4673573901        1.6128618746
 H          0.1201212747        2.8887415990        2.1560388846
 H         -0.8947696207        4.0613042698        2.2193064125
 O         -2.3924512420        3.4066470619       -0.3606363846
 H         -1.8050128071        3.1726399262        0.3732783670
 H         -1.8454974501        3.4360763279       -1.1645164650
 O         -2.8957575831        1.8693508650        2.2186591176
 H         -3.7100118873        1.3575415086        2.3719285371
 H         -2.2764937826        1.6046215232        2.9275294555
 O          1.0081169670        3.9101740008       -0.7111323179
 H          0.4933710000        3.8934245171        0.1110134747
 H          0.3785204490        3.7522103208       -1.4259416391
 O         -2.9192936489       -2.7398089707        0.8992327035
 H         -2.9444879550       -2.5557376323       -0.0607758898
 H         -3.8502723123       -2.8720912066        1.1447021837
 O         -4.6565894310       -0.5568864425        0.1034646960
 H         -5.3338019861       -0.9978003830       -0.4367291800
 H         -4.5494217221        0.3327456990       -0.2808994010
 O          5.7059658079        1.6709472685       -0.7935324568
 H          4.8754298157        2.1676037278       -0.7614185576
 H          5.6550089144        1.1178548359       -1.6025330594
 O          4.0008559868        2.4903116373        2.3789620408
 H          3.9404428793        1.6718833997        2.8800195182
 H          4.9685160496        2.5874049026        2.1940299510
 O         -6.4873174735       -1.1694206237       -1.8518681151
 H         -7.0624649771       -0.4552827219       -1.5440387593
 H         -5.9004157547       -0.7991060668       -2.5244294996
 O         -1.1424005948        0.8475659186        3.9832939546
 H         -1.0918662165       -0.0523797094        3.6253689007
 H         -0.2724454732        1.2485583605        3.8521349509
 O         -6.1679011632        2.4727267789        1.0876912330
 H         -5.9203042131        1.7939281506        1.7367194644
 H         -5.6223142170        3.2566797830        1.3338055710
 O          5.2099166174       -0.0723237840       -2.7696287451
 H          4.2911710641        0.2397715743       -2.9051804366
 H          5.1238292806       -0.9590723665       -2.4042934154
 O          6.5669287684        2.3631517621        1.7687299679
 H          6.9863727317        1.5157075335        2.0230883620
 H          6.5568730469        2.3469563504        0.8034915882
 O          7.5599682934       -0.1454325703        2.0746047807
 H          7.0718933035       -0.8095393291        2.5763437575
 H          7.5901697226       -0.4866899231        1.1653053399
 O          7.2021219966       -1.1639476148       -0.5011091949
 H          7.2384491443       -0.5031175682       -1.1965348376
 H          6.4389817030       -1.7230571328       -0.6888873144
 O         -4.1965461189        4.1712125517        1.6325858639
 H         -3.7681694846        4.3997648892        0.7999255316
 H         -3.6615753616        3.4268012939        1.9757634320
 O         -5.4808513916       -3.7074941066       -1.3426936485
 H         -5.5382799858       -3.6655487798       -0.3734282071
 H         -6.0927573607       -3.0320965520       -1.6632019196
 O         -7.7833656776        0.8156142171       -0.3674054265
 H         -7.2534423515        1.4902102378        0.0969181153
 H         -8.6767588532        1.1560072763       -0.4131775558
 O         -0.4037414065       -3.9083570359        1.1688546196
 H         -1.3341222103       -3.6625448864        1.0554187632
 H         -0.0755924978       -4.0946447864        0.2653751800
 O         -5.1580059783        0.3200954171        2.5297099868
 H         -4.9056097360       -0.1575335530        1.7020136528
 H         -4.7329893937       -0.1542499630        3.2766582923
 O         -3.6452663298       -0.7607244506        4.4446621589
 H         -2.9395895967       -1.2485279524        3.9819713648
 H         -3.1966080550       -0.0371978029        4.8899135198
 O          0.1252273281       -1.0791315673       -3.6971341513
 H          0.2544172614       -0.9757109453       -4.6393683023
 H         -0.3742429106       -1.9415360122       -3.5665474809
 O         -5.6187751828       -3.1372172923        1.3707235263
 H         -6.2770630231       -2.4015968991        1.4278461438
 H         -5.8494967970       -3.7550621239        2.0634807456
 O         -7.3457209388       -1.1254155212        1.6522922084
 H         -6.7842468533       -0.5443566848        2.1921385785
 H         -7.5764384523       -0.6076426245        0.8660552864
 O          3.1200542594       -5.1611067711       -0.8681241651
 H          3.7499251541       -4.8046862009       -1.4979419835
 H          3.4174250721       -4.8683706487        0.0056197828
 O         -3.6189655157        3.1754094662       -3.4675973539
 H         -4.0395206257        2.9474310952       -2.6262503764
 H         -3.7672975779        2.4253036322       -4.0476079153
 O          1.5289285785        3.0444963146       -3.8529273734
 H          1.9953792180        3.8055378467       -3.5026842087
 H          0.6026793940        3.1405386611       -3.5689533618
