  117

 H         -0.5425054112       -1.1597996585        0.9180873603
 C         -0.6112510051       -0.5412956740        0.0100749182
 H         -0.5391308395       -1.1969144470       -0.8712436603
 C          0.5103658647        0.5037878336       -0.0094871839
 H          0.3911098457        1.1518924073        0.8600966290
 H          0.3944399221        1.1152669956       -0.9056411629
 O         -1.7891825170        0.2100258093       -0.0077307041
 H         -2.5646581753       -0.3620747641        0.0026734602
 N          1.8637421187       -0.1172780949        0.0059475210
 H          1.9871272140       -0.7237037740       -0.8163106225
 H          1.9839787968       -0.6890763206        0.8531041602
 H          2.5930828886        0.6072400317       -0.0077051379
 O          1.9462403929       -2.1728227449       -1.7197639771
 H          2.9109448404       -2.3513283387       -1.7430648033
 H          1.5440680156       -2.8510585039       -1.1543801880
 O          2.7059582271        2.1142842868       -2.1132727298
 H          2.5708273695        2.4154034897       -1.1962728892
 H          1.8228383393        1.9610006017       -2.4935076870
 O          0.5381715587       -0.9618494279        3.3282241370
 H          1.1670169559       -0.2255183750        3.2301396636
 H         -0.3433856524       -0.5506470435        3.3128731241
 O         -2.0804590873       -0.1351545828        3.1302216956
 H         -2.4532843121       -0.8647014164        2.5807074469
 H         -2.5188489724       -0.1839186892        3.9809691308
 O         -4.3331101014       -0.3061978213       -0.2899958034
 H         -4.4412305425        0.6383316526       -0.0737146578
 H         -4.5552689286       -0.4074498445       -1.2392675994
 O          2.2712175788        2.7597762279        0.5474279503
 H          1.4142587572        3.1779627645        0.7404604228
 H          2.9618236720        3.4437052132        0.6889748110
 O         -0.2885486112        3.6769220688        1.0197927390
 H         -0.8297577190        3.4243124748        0.2298615161
 H         -0.3469050560        4.6292505615        1.1057626134
 O         -2.5967549730        2.3982809104        2.1997015469
 H         -1.7616420586        2.8198389212        1.9523713474
 H         -2.3681417018        1.4911667709        2.4692777923
 O          2.4032546034       -2.1722362569        1.7236386819
 H          1.9737798758       -2.8947317220        1.2298361011
 H          1.8472515029       -1.9835972896        2.4948752783
 O          0.2578395667        1.5147151512       -3.1998549537
 H          0.3232941409        0.5356144061       -3.3866405666
 H          0.2809266723        1.9422919625       -4.0571608939
 O          4.7330992962        0.4526021479       -2.4694803331
 H          3.9449773317        1.0485019831       -2.4683016087
 H          5.3148928285        0.7646328903       -3.1621094364
 O         -4.6501144974        2.2708551975        0.5379246336
 H         -5.4581397134        2.0308290736        1.0138821198
 H         -3.9313035774        2.3469552763        1.2129404475
 O         -1.9701265392        2.7964244723       -0.8148955676
 H         -1.8764749658        1.8445529520       -0.6091602675
 H         -2.8342149282        3.0422915196       -0.4744041613
 O         -3.0874303459       -2.2443846004        1.8649387434
 H         -4.0181700877       -2.2199346810        2.1270356233
 H         -3.1145515625       -2.4966521767        0.9057183929
 O         -2.5132834187        1.0980859648       -3.0972231233
 H         -1.6063562752        1.4307248162       -2.9972953772
 H         -3.0970765068        1.7462367700       -2.6736904919
 O          2.4322395917        0.8755631324        2.6113374206
 H          3.3314530009        0.7569055097        2.9481807789
 H          2.4654582909        1.6153585712        1.9817104726
 O         -2.2592696440       -1.5272207935       -2.7638556109
 H         -2.3938032787       -0.5498785187       -2.7686715323
 H         -2.8282780127       -1.8595640731       -3.4606954974
 O          0.3260444294       -1.0584216903       -3.6383306031
 H          0.9644927258       -1.5328510458       -3.0825012916
 H         -0.5565267460       -1.3731895413       -3.3742760057
 O          4.3775676614        0.8218611464        0.1674165596
 H          4.6459192500       -0.0028117684        0.6226720708
 H          4.7799259284        0.8037443863       -0.7160166531
 O          0.8935277700       -3.8589541890        0.2321801054
 H          0.2052778238       -3.7145223866        0.9292038288
 H          0.9486158018       -4.8074295579        0.1105288129
 O         -0.6172611664       -3.3546678811        2.3314802865
 H         -1.5576761501       -3.1360262181        2.2340620776
 H         -0.2287599369       -2.6464412654        2.8640197035
 O          4.5864097223       -2.0970362507       -1.4072275245
 H          4.7167234042       -1.2416292484       -1.8521009392
 H          4.7240288153       -1.9546297119       -0.4639274084
 O         -5.7623452622       -1.5178759136        1.5609554361
 H         -6.2550485596       -2.2114846585        1.1123296066
 H         -5.1846107545       -1.1373484633        0.8500557498
 O         -5.0254133035       -0.3741309713       -2.9010911940
 H         -4.4423887763        0.2936662956       -3.2788224041
 H         -5.8521936071        0.0768580202       -2.6922106777
 O         -3.3925692345       -2.9123848775       -0.6551062590
 H         -4.3446718223       -2.8015909693       -0.8074756703
 H         -2.9407283938       -2.4295896083       -1.3686415942
 O         -6.9095710827        0.8832801867        1.4213836090
 H         -6.5279969756       -0.0037582545        1.6341694021
 H         -7.5934731933        1.0549680724        2.0689171750
 O         -7.2522821909        0.1190999695       -1.2160219937
 H         -7.1124642580        0.4925543486       -0.3253392892
 H         -8.1852084849        0.2133866229       -1.4100352387
 O          4.9613310298       -1.4426236003        1.4962834072
 H          5.1486987193       -0.9136698485        2.2940535000
 H          4.0895398850       -1.8483204027        1.6690383876
 O         -6.1908782669       -2.4922902118       -1.0633183056
 H         -6.5096290060       -1.5804984501       -1.1867337274
 H         -6.3377908712       -2.9404815651       -1.8965537177
 O          5.1142126715        0.4961371258        3.3765512431
 H          5.4087212048        0.5790392671        4.2820018599
 H          5.4854985546        1.2629932394        2.8760661717
 O          5.8474660047        2.4010315047        1.6784542901
 H          6.6877429203        2.2194499169        1.2233305784
 H          5.1952478981        1.9357666414        1.1013655796
 O          7.5929957484        1.3520134371       -0.0994962650
 H          7.4794836648        0.3825572440       -0.1196662338
 H          8.5206062258        1.5087782149       -0.2728325549
 O         -4.7435576687        2.4835765929       -2.1878154975
 H         -4.8303153526        2.4735167217       -1.2200099363
 H         -5.0001902631        3.3559999297       -2.4845873460
 O          7.2367061980       -1.3537656891       -0.1139850746
 H          6.6215345057       -1.5766333947        0.5983503967
 H          7.0102521871       -1.9134966847       -0.8609572413
 O          4.3103591458        4.4530764421        0.7813477444
 H          4.6814416618        4.5986308630       -0.0907161830
 H          4.9550542148        3.9024582459        1.2659876161
