  87

 H         -0.5425054112       -1.1597996584        0.9180873603
 C         -0.6112510051       -0.5412956740        0.0100749182
 H         -0.5391308395       -1.1969144470       -0.8712436601
 C          0.5103658647        0.5037878336       -0.0094871839
 H          0.3911098457        1.1518924073        0.8600966291
 H          0.3944399221        1.1152669956       -0.9056411629
 O         -1.7891825170        0.2100258092       -0.0077307039
 H         -2.5646581753       -0.3620747641        0.0026734603
 N          1.8637421187       -0.1172780949        0.0059475208
 H          1.9871272141       -0.7237037741       -0.8163106222
 H          1.9839787968       -0.6890763206        0.8531041601
 H          2.5930828886        0.6072400317       -0.0077051378
 O          3.2429952707        2.1409482483        0.4415056522
 H          4.1806530672        1.8725729195        0.5797564234
 H          2.8436536626        2.2258513852        1.3204621486
 O          1.9999308229       -1.4757333279        2.3078136245
 H          1.2943594711       -1.0587319900        2.8329622171
 H          1.6320639471       -2.3089159885        1.9535158912
 O         -0.0096312114       -0.1429279720        3.5744247779
 H         -0.3815736811       -0.7537905492        4.2123492047
 H         -0.7762244357        0.3436569421        3.2082914359
 O         -2.9454256321       -1.6033767273        2.9825571511
 H         -3.8695236469       -1.6686416857        2.7144332619
 H         -2.7387987074       -0.6579707351        2.9354220254
 O          2.9059453339       -3.1861862089       -0.8907786293
 H          2.1185610932       -3.2974692240       -0.3359423424
 H          2.5969201264       -2.8364230318       -1.7344095091
 O          2.0981084098       -1.1030419186       -2.5510889017
 H          1.4935206483       -0.5071980938       -3.0110735466
 H          2.9883406141       -0.7404058416       -2.6958273407
 O          0.8052782515       -3.4081373235        0.9103139073
 H          1.0489962794       -4.2933597737        1.1756305386
 H         -0.1861155098       -3.3795371633        0.9851888536
 O          4.4884620366        0.2215190254       -2.2589190793
 H          4.5346421660       -0.1827183827       -1.3583312986
 H          5.3925918177        0.3108910671       -2.5594601056
 O         -2.1822626030        1.0328655854        2.5288189605
 H         -2.5753753223        1.8997561333        2.6471630110
 H         -2.0558780171        0.9132091203        1.5618020755
 O         -1.7811899041       -3.3289257334        1.2304383112
 H         -2.3211430882       -3.0423128582        0.4811104978
 H         -2.1269062016       -2.8258727550        1.9933364415
 O          4.3315813060       -1.1387234965        0.0185433600
 H          5.1477402950       -1.3178579279        0.4850151613
 H          3.9434603750       -2.0003380471       -0.2545435362
 O         -3.5233995256       -1.8537085154       -0.3497077131
 H         -3.9357773516       -1.8176755389       -1.2143990967
 H         -4.2332995815       -1.7810379562        0.3161784474
 O          0.5107812753        1.1282807643       -3.2706824098
 H          0.0414504787        1.7939920264       -3.7767567246
 H          1.2891409602        1.5964594285       -2.8905535876
 O          2.6861885553        2.2825318530       -2.1853890726
 H          2.8665915850        2.4298986574       -1.2407555959
 H          3.3983372399        1.6800235863       -2.4570118448
 O          4.0803852791        0.2510287708        3.0092694870
 H          3.5480666983       -0.5307204013        2.8039342561
 H          3.4504367169        0.9546403717        3.1998226156
 O         -2.9274314975        2.9663718445        0.5405286634
 H         -2.7064980233        2.9736587020       -0.4128760088
 H         -3.6793797177        2.3560922661        0.5942631062
 O         -2.0673879691        2.3156487553       -1.9349626876
 H         -1.2621872773        2.8618168591       -1.9287554674
 H         -1.8421122002        1.5018701570       -1.4569963302
 O          0.2527573501        3.5881320594       -1.4140202784
 H          0.2725999676        3.5154355979       -0.4475119185
 H          1.1593507613        3.5514638497       -1.7310629343
 O         -4.0024815619        0.3818655088       -2.3019472502
 H         -3.1766522574       -0.1172254014       -2.4552264482
 H         -3.7943703581        1.2672607846       -2.6211156248
 O         -1.5686061724       -0.7169998739       -2.9500730839
 H         -0.8722267233       -0.0457583948       -3.0414660186
 H         -1.5368629453       -1.2579059965       -3.7394527608
 O         -4.9596324343        1.1172613264        0.0631655100
 H         -5.7481925142        1.6110019261       -0.1690642965
 H         -4.5866251564        0.7833448803       -0.7937619785
 O         -0.3622649248        3.2488625860        1.3169543130
 H         -0.3345863184        4.1713414967        1.5672810430
 H         -1.3012767560        3.0791349164        1.0801008116
 O          5.6115271495        1.1269856516        1.0122398483
 H          6.3306958033        1.6581919133        1.3505997783
 H          5.1788840268        0.7047695489        1.7897736576
 O          1.7055313318        1.9537541287        2.7881982495
 H          1.2373873023        1.2466329048        3.2545661406
 H          1.0122463623        2.5352548135        2.4463583364
 O         -5.3343160529       -1.1276495637        1.5078852504
 H         -6.2678239161       -1.3315011437        1.5628032930
 H         -5.2543515809       -0.2290004888        1.1234365733
