  191

 H          0.4630927076        1.1941025328        0.8323452957
 C          0.5529035760        0.5095402429       -0.0251092076
 H          0.4633421182        1.0989800597       -0.9466436097
 C         -0.5779259333       -0.5149488603        0.0205351874
 H         -0.4518492549       -1.1270258236        0.9278134321
 H         -0.4840892691       -1.1748678655       -0.8448928486
 N         -1.8603253885        0.1647702475       -0.0623309409
 H         -2.6131021662       -0.5138473280       -0.0751527667
 H         -1.9956541839        0.7570092262        0.7508171931
 O          1.7808081027       -0.1833448059        0.0209869107
 H          2.5006908393        0.4507195085       -0.0567171281
 O         -1.6994722977        0.9106139497       -2.5495169765
 H         -1.8192208729        0.6704094037       -1.5686013158
 H         -2.5913416630        0.8419210911       -2.9703486527
 O          2.6882340444        1.0709844703       -2.5523508627
 H          2.2122566637        0.6361993995       -3.2885288287
 H          2.1752358638        1.8724783859       -2.3410081739
 O          4.3323292329       -0.6103049039       -1.1820117609
 H          5.2495909866       -0.3433672059       -1.4356554396
 H          3.7308424029        0.0181038136       -1.6219469290
 O          1.4402966498       -2.1806130033       -1.8562046048
 H          2.2807193814       -2.6304376346       -2.0531719023
 H          1.6591748407       -1.4908991755       -1.1997991502
 O         -0.6411600177       -1.4101011743       -3.4565483455
 H          0.0957490422       -1.7024644115       -2.8849776044
 H         -0.9652855251       -0.5536040977       -3.0904770792
 O         -2.2655123062       -3.2515870584       -2.1704341251
 H         -1.8222073110       -2.6267752594       -2.7749972585
 H         -2.8715355104       -3.7883361278       -2.6846352893
 O         -5.2245849253        0.0323549461       -1.3712126466
 H         -5.2335339565       -0.8992359112       -1.6875583168
 H         -4.7063469294        0.0448726711       -0.5440222848
 O          4.0288147711       -2.9394454336       -2.2846691960
 H          4.1721152238       -2.0925671786       -1.7885664185
 H          4.6340105355       -3.5532229874       -1.8551482783
 O          2.4108896002       -4.0533041905        0.4425921894
 H          1.7528335115       -4.6412127467        0.0658529953
 H          1.9291066777       -3.3847981233        0.9598681916
 O         -0.1101681200       -4.1649318023       -0.7933631458
 H         -0.9657191336       -4.0366760331       -1.2338913210
 H          0.4703362496       -3.4661886453       -1.1547315008
 O         -3.6761752857       -2.0499501505       -0.1518271864
 H         -3.2382468417       -2.5654523487       -0.8491844005
 H         -3.2412499033       -2.2969562556        0.6929567398
 O          1.1014114477        3.2286293590       -2.2023976544
 H          0.6122219982        3.0606552922       -3.0399633675
 H          0.4579079366        3.4225794376       -1.4981043166
 O         -0.5395012542       -4.2123681859        1.8337201258
 H          0.1766883781       -3.6794965468        2.1998969864
 H         -0.3864885490       -4.2305860743        0.8604752671
 O         -2.5873989029       -2.6077644543        2.1991334810
 H         -1.8300278126       -3.2325490185        2.1405924918
 H         -3.3567166878       -3.1021792727        2.5664270932
 O         -2.9000519609       -0.2284974457        3.2627337789
 H         -2.7581349183       -1.1337514041        2.9140065860
 H         -3.3324307655        0.2296500777        2.5116671600
 O         -1.6196038035        2.3490099434        1.9499465441
 H         -0.8846280380        2.2893569394        2.5770583815
 H         -2.4369617664        2.3829590840        2.4804339047
 O         -4.2979827290        3.1338431581        0.0601584745
 H         -3.9829063190        3.7895452838        0.7206230710
 H         -3.6509280570        3.1795399408       -0.6747470954
 O         -2.4075978895        3.4495223665       -1.8232437306
 H         -1.7131018268        3.8441181560       -1.2782750372
 H         -2.0545944551        2.5916996082       -2.1342005567
 O         -4.3369990909        0.6422206891        1.1526881181
 H         -4.3678936799        1.5713921847        0.8608642647
 H         -5.2284251801        0.3807572389        1.4633826131
 O         -0.4085313211        3.8090440439        0.0160463686
 H         -0.9293747776        3.2228573046        0.5969928285
 H          0.4462646808        3.9081439815        0.4867882420
 O         -6.7275400267       -0.3692592709        1.8686885978
 H         -6.5247953087       -1.2958726967        1.5920337608
 H         -7.2651308768       -0.0282619853        1.1211524092
 O          1.3677564689       -2.0813225446        2.1300027555
 H          2.0543079487       -2.2492523431        2.8289119398
 H          1.7470304757       -1.4206791631        1.5260058463
 O         -0.1723396996       -0.4780116003        3.7633569988
 H          0.2048140655       -1.1433063130        3.1582505413
 H         -1.1351044617       -0.4346457597        3.6291297522
 O          0.6998796916        1.9451802496        3.4447845558
 H          0.3541698140        1.0121051865        3.5297815316
 H          0.9972579528        2.1410657789        4.3411203693
 O          3.2271100928        1.1071051328        2.8001526590
 H          3.2960069669        0.3603603200        2.1816958589
 H          2.2900113231        1.2955208406        2.9753149923
 O          4.0654934630       -1.0779280998        1.4251680817
 H          4.1458098462       -0.9326378136        0.4629923045
 H          4.2723197514       -2.0280810960        1.5803181067
 O          6.3142904050        2.1649927390       -0.1890577217
 H          6.3065619945        2.8878252161       -0.8496541647
 H          7.1234727560        2.2302922780        0.3432658679
 O          3.5900254736        1.9426972952        0.0705528189
 H          4.5353272163        1.8941539624        0.2904638535
 H          3.5505481703        2.6350610061       -0.6129070214
 O          6.3636954710        0.0076107285        2.2663617636
 H          5.5156506103       -0.4051862542        1.9864814502
 H          6.1604360750        0.9629540660        2.2960011109
 O         -7.6695385866        0.5761439312       -0.4612891090
 H         -6.7915528170        0.4317597172       -0.8847366288
 H         -7.7193396744        1.5279267712       -0.3121602766
 O         -6.1094279228       -2.7097886970        0.7760821668
 H         -5.2580564322       -2.4824075763        0.3396222641
 H         -6.7930383785       -2.6792208094        0.0725009962
 O          4.7031820782       -3.6512739235        1.7295741685
 H          5.3636085766       -3.6924372739        1.0138331432
 H          3.8962159578       -4.0174488766        1.3238443877
 O          3.2239811803       -2.5849579479        3.9186394719
 H          3.7294579611       -1.8105827124        4.2432150058
 H          3.8585879787       -3.1358900725        3.4452080491
 O          7.5615391106       -1.3496375115        0.1392185478
 H          7.1638847523       -0.8907080157        0.9027551420
 H          7.3836952192       -0.8030333289       -0.6406532031
 O         -6.9288342004        3.1941446814        0.2508958354
 H         -5.9576682651        3.1715227149        0.0831026839
 H         -7.1856121847        4.1156408176        0.2537617947
 O         -4.8543827155       -3.7407241822        2.9618317249
 H         -5.0561624963       -3.0431591695        3.6191391025
 H         -5.4435216303       -3.5359473527        2.2140514511
 O         -7.7852093085       -2.2214947323       -1.2493690115
 H         -8.0419827225       -1.3043447899       -1.0949739842
 H         -7.1264544883       -2.2110820553       -1.9598708091
 O          5.4639655238        2.5685011322        2.5286076503
 H          5.6225509253        3.0825100880        3.3189822160
 H          4.5570152652        2.2140505731        2.5947673324
 O          1.8800082577        3.6267443137        1.4201827118
 H          2.5230801222        2.9934508882        1.0441042411
 H          1.5254217402        3.2012898991        2.2099000000
 O         -5.2594135134       -1.3575170429        4.1997466730
 H         -4.4188734777       -0.8953824131        4.0277545541
 H         -5.9118363336       -0.9603430036        3.6127448100
 O          3.3983649484        4.2602154547       -1.3902990329
 H          2.5459839732        4.0440877866       -1.8187869703
 H          3.1930540157        4.8169801535       -0.6366379856
 O          4.6068798491       -0.3507924185        4.5905734934
 H          5.4725546121       -0.4182607512        4.1705575614
 H          4.1049348057        0.2782152018        4.0310939951
 O          5.9072473895        3.6096049514       -2.3989641950
 H          5.7364059852        2.9464520201       -3.0781375546
 H          5.0464281205        3.9922372315       -2.1740115678
 O          6.6946050492        0.2543599247       -1.9218604356
 H          6.3479702656        0.6061753710       -2.7626309363
 H          6.6314823881        1.0109698311       -1.2834183070
 O         -3.8214573642        2.5989135112        3.5383956473
 H         -3.6612919895        1.9211020928        4.1991155793
 H         -4.7648602270        2.4978519802        3.2749984710
 O          5.0388201227        1.1939980402       -3.8540267624
 H          4.8723463512        0.4043086722       -4.3822247241
 H          4.2051576628        1.3089716034       -3.3502187662
 O          1.5045786442       -0.1143204135       -4.6646231871
 H          2.2979459341       -0.6595610388       -4.7915539877
 H          0.7706056028       -0.7128441474       -4.4462475232
 O         -6.3790892090        2.2443222398        2.8160203743
 H         -6.6555845039        1.3199166674        2.7824960505
 H         -6.6691665688        2.6337755523        1.9739197069
 O          1.8818322734        0.6133109766        5.5351842788
 H          2.7443390405        0.1956845352        5.6066795601
 H          1.2604709453       -0.0816731819        5.2906562273
 O         -4.6888669440        3.5062162507       -3.3635641649
 H         -3.8365858689        3.7263128570       -2.9559327211
 H         -5.3470694672        3.5714653906       -2.6692330840
 O         -4.0926762193        0.8828554879       -3.6219167788
 H         -4.5945542243        0.6124348959       -2.8212746068
 H         -4.3439576486        1.8120568275       -3.7814204928
 O         -5.3489865523       -2.3273358258       -2.5901942860
 H         -4.7469856863       -2.1973264467       -3.3403165489
 H         -5.0576450166       -3.1388465654       -2.1318981124
 O          6.2551220827       -3.5604903477       -0.5095847798
 H          6.7405838731       -2.7262140100       -0.2827259316
 H          6.9296815630       -4.2322438884       -0.6009346092
 O         -3.3062477408       -5.2065305120        0.9758486810
 H         -2.3882942250       -5.2020613455        1.2627376877
 H         -3.8444025703       -4.9830005478        1.7454839783
 O         -4.6730923009       -4.6256560696       -1.3132309977
 H         -4.0831858606       -4.8104543376       -0.5575643986
 H         -5.5452872613       -4.8995911208       -1.0251944918
 O         -3.4195876786       -1.6417997935       -4.4678388346
 H         -2.4595677818       -1.5995224914       -4.5091491589
 H         -3.7204144626       -0.7203939819       -4.4111606387
 O          3.9514020792       -1.4226952043       -4.5311879121
 H          4.3473541445       -1.9398489987       -5.2297629484
 H          3.9733810942       -1.9938877014       -3.7346770651
 O         -0.0821722385        2.2380305896       -4.3444543863
 H         -0.7402461199        1.7346347510       -3.8391848089
 H          0.5145866011        1.5842871591       -4.7287603739
 O         -3.2967723042        4.8049915296        1.8919981997
 H         -2.3466072027        4.7612601239        1.7521844596
 H         -3.4877865822        4.2756380178        2.6796197410
 O          8.6166754480        1.4119663370        1.1085654812
 H          9.0176494761        0.7556235487        0.5332436186
 H          8.1262834581        0.9142302131        1.7746692211
