  282

 H         -0.5425054112       -1.1597996586        0.9180873602
 C         -0.6112510052       -0.5412956739        0.0100749182
 H         -0.5391308395       -1.1969144470       -0.8712436601
 C          0.5103658647        0.5037878336       -0.0094871839
 H          0.3911098457        1.1518924073        0.8600966288
 H          0.3944399221        1.1152669956       -0.9056411630
 O         -1.7891825170        0.2100258093       -0.0077307040
 H         -2.5646581753       -0.3620747641        0.0026734601
 N          1.8637421187       -0.1172780950        0.0059475209
 H          1.9871272141       -0.7237037740       -0.8163106224
 H          1.9839787968       -0.6890763206        0.8531041603
 H          2.5930828886        0.6072400317       -0.0077051379
 O          3.5033287580       -0.7958238475        3.2435011990
 H          3.1833539357       -0.5880347349        4.1465422681
 H          2.9065751381       -1.4652044928        2.8496956793
 O          1.5505595389       -0.3888725008       -2.7722266236
 H          2.5199023201       -0.4270845202       -2.7434687259
 H          1.3196844028        0.3050399846       -3.4176147878
 O          1.6986745413       -2.1351302535        1.8930983027
 H          0.9836701934       -1.7098300561        2.4130866692
 H          1.5039747580       -3.0865930453        1.8700687123
 O         -1.9435739944       -1.9139852018       -2.3662341892
 H         -1.1742822182       -2.2963515658       -2.8213027510
 H         -2.6137973032       -1.7825355966       -3.0392007114
 O         -3.9872101278       -1.0801142954       -0.5602212998
 H         -3.6910643046       -2.0176737356       -0.5018267907
 H         -4.0355725624       -0.8837123079       -1.5068918326
 O         -0.1880501241       -0.9370259774        3.2539345397
 H         -0.9153256349       -1.5680267513        3.0716794455
 H         -0.5396753824       -0.0319072225        3.1246378189
 O         -0.5462994248       -3.7854638356       -0.4653981604
 H          0.2382210723       -3.2228901399       -0.4163411915
 H         -0.3763058493       -4.3710803557       -1.2416427672
 O          4.1842921863        0.9117706307        1.1962894897
 H          4.0839281345        0.2943680465        1.9368556819
 H          4.6269297831        1.6955326422        1.5676772086
 O         -1.4982734359       -5.1545896577        1.5645016352
 H         -1.1941247772       -4.6692395791        0.7561724577
 H         -2.2630848638       -5.6684671912        1.3039057663
 O          1.6651884797        1.3277668235        2.6623850057
 H          2.3640016368        0.6981540067        2.8813816364
 H          1.4423594077        1.7699910396        3.5095619746
 O         -1.4652893167        0.0886120267       -4.9868482496
 H         -1.4744216524        0.2760153568       -4.0201636673
 H         -2.2715908248        0.5055171977       -5.3158261579
 O          2.7007290142        2.2564024195       -1.0332944230
 H          2.7598421344        2.7791393360       -0.2088746974
 H          3.4822557174        2.4532613799       -1.5645523942
 O         -4.4870687438       -0.8785807352       -3.3916103217
 H         -5.4136910266       -0.6361451036       -3.2106567047
 H         -4.1886780077       -0.2510640660       -4.0635112829
 O         -3.8898665970       -1.0432835709        2.5766678363
 H         -3.7629865881       -0.2911188919        1.9649430495
 H         -3.2066993946       -1.7141131308        2.4203569228
 O         -1.6116403095        1.2990968104        3.0261749799
 H         -2.1219163734        1.0121281844        3.8095843733
 H         -2.2459630000        1.3041745847        2.2918652306
 O         -3.2579588978       -3.6136635187       -0.4458140269
 H         -3.7484649717       -3.7839942717       -1.2746364511
 H         -2.3222266920       -3.5062004605       -0.6938384079
 O          0.8785040225        1.5789931541       -4.5466392733
 H          0.6673625606        2.2378346924       -3.8539385945
 H          0.0249503306        1.2873572353       -4.8971517774
 O          0.4030175128        2.8758359542       -2.2587340902
 H          0.2261253088        3.8162298034       -2.0587739163
 H          1.2855984549        2.6950243625       -1.8668340172
 O          1.3819907846        2.6449107954        4.9594566266
 H          0.6061412674        3.1953014413        4.7868257846
 H          2.1585736110        3.2195427746        4.7634794385
 O         -1.9642803659       -2.8381009101        2.8202351514
 H         -1.8423140385       -3.7278778884        2.4388461743
 H         -2.1130885815       -2.9329726187        3.7857220550
 O         -3.2020753193        0.0648743737        4.8199335911
 H         -3.9257841384        0.5480283973        5.2184575633
 H         -3.5728427015       -0.3917408572        4.0093309326
 O         -3.8636739431        1.2830310749        1.3789676210
 H         -4.4332356131        1.6592220080        2.0747836049
 H         -4.4359186952        1.1699720691        0.5903623159
 O         -0.7388487892        3.8136485305        3.5674488680
 H         -0.9447428387        2.8823198887        3.3447681903
 H         -1.5955766343        4.2555516484        3.5399813006
 O         -2.0105580880        3.0762795951        0.3867680972
 H         -2.4709126267        3.2816109901        1.2287111282
 H         -2.0416536385        2.1138435978        0.2811810070
 O          5.8319411491        2.9338728437        1.8721259585
 H          6.0502634243        3.1528224573        0.9410635346
 H          5.6168937372        3.7493908501        2.3289023095
 O         -1.5795210602        1.0827130202       -2.5335133169
 H         -1.6062698736        0.6105152401       -1.6821857440
 H         -0.9185638039        1.7989321009       -2.4594309552
 O         -6.3900298256       -0.4762294558        3.5482706216
 H         -5.9025063397       -1.1868712249        4.0111314036
 H         -6.2498492596       -0.6842055221        2.6010018893
 O         -3.9679765288        2.0806925759       -2.4574067424
 H         -3.0586068558        1.6952717044       -2.4317342766
 H         -3.8790931760        3.0016195819       -2.1386003895
 O         -8.8137251918       -0.4638011748        0.6854348660
 H         -7.8770481717       -0.7157857728        0.7304020714
 H         -8.8965505463        0.1895004816       -0.0287674417
 O         -5.5782027582        1.1121749346       -0.6272041046
 H         -6.1813545004        1.7976532196       -0.2669112848
 H         -5.0304679551        1.5338294111       -1.3304385566
 O         -3.3518996528        3.8679583361        2.6504165781
 H         -3.8219309427        3.2687994326        3.2402137152
 H         -4.0592224684        4.3258006227        2.1453383613
 O          4.9326633475        1.8522575802       -2.6114295698
 H          4.7226414896        0.9562486786       -2.2569310278
 H          4.4095772091        1.8872693662       -3.4496694526
 O          2.0130634697       -2.7982040357       -0.9072273937
 H          2.3054357767       -2.8680032381       -1.8345727632
 H          2.8099764304       -2.5386517786       -0.3859861369
 O          2.5966628458        3.4252978760        1.3651664353
 H          2.3220773134        2.5808281157        1.8086842189
 H          1.7493729375        3.9095007738        1.2373227029
 O          4.6890446469        1.4733879605        4.2816937646
 H          5.6332763415        1.3012865026        4.3381810069
 H          4.2604460584        1.0495963576        5.0313368260
 O          1.1600918209       -4.8199875500        2.1118778200
 H          1.5191264691       -5.1768460617        1.2740007768
 H          0.2236180636       -5.0647356462        2.1181120486
 O          4.1479084740       -0.6526199865       -2.1506652698
 H          4.7627748149       -1.1053184501       -2.7659341527
 H          4.4747194125       -0.8388401283       -1.2593355811
 O          6.1100047293       -1.4671292714        3.1443357397
 H          5.1693083267       -1.2044068192        3.1964610714
 H          6.5985043999       -0.6364724504        3.3095354464
 O          0.1846195262        4.4634398594        1.1035915313
 H         -0.0410991440        4.4645247810        2.0538957702
 H         -0.5141894777        3.9109667343        0.7014163862
 O         -4.8967531775       -3.5587636493       -2.5904362490
 H         -4.6444571642       -2.7614801782       -3.0798423017
 H         -5.7482030357       -3.3308072871       -2.1784313152
 O          8.2467118930        1.5139957760       -0.5522930686
 H          7.3914654079        1.0092254958       -0.4988145021
 H          8.7130565721        1.0821668219       -1.2971677832
 O         -6.1433147407       -1.3500258404        0.9464889930
 H         -5.4052711810       -0.9409471952        0.4481546706
 H         -5.7434993472       -2.1563585195        1.3556532696
 O         -5.3410034730        1.9850790059        3.5427187898
 H         -6.1031874960        2.5559098050        3.4230580090
 H         -5.7006229820        1.0720266710        3.6334212774
 O          6.0930086892        0.0303446681       -0.3939983069
 H          6.5048351317       -0.7152921094        0.0780948156
 H          5.3895501658        0.3762056382        0.2007769212
 O         -4.9158662149       -3.5952704615        1.7235059678
 H         -4.1845725843       -3.6189345189        1.0839886164
 H         -5.5666813112       -4.2399262430        1.3827137959
 O          7.2784880190        0.9726640019        3.2246555102
 H          8.1002401287        0.7685475829        2.7512529979
 H          6.8389124631        1.6696145427        2.7075993186
 O          0.2831320962        5.4443523735       -1.5111350574
 H          1.2286024120        5.4581757443       -1.7662431817
 H          0.2638356731        5.3886951212       -0.5450670869
 O          3.5985164008        1.4264779293       -4.8284774840
 H          3.5884891201        0.4581404941       -4.9226224962
 H          2.6654573938        1.6843198606       -4.8454690683
 O         -7.2627786094        2.7341102556        0.6398592472
 H         -7.6416080686        2.2941676714        1.4332752225
 H         -7.9413952464        2.6694508434       -0.0437150364
 O          2.4963706933        0.0927563225        5.5677958019
 H          1.8321135516       -0.5714946457        5.8257758221
 H          2.0332366477        0.9432628228        5.5252423271
 O         -8.3241592269        1.3248037607        2.6551757227
 H         -7.8036686421        0.7666431649        3.2459124816
 H         -8.7693672103        0.6962485490        2.0542699016
 O          0.4423637880       -2.6735403786       -3.5113151104
 H          0.8592401760       -1.8688261927       -3.1321493233
 H          0.4668044626       -2.5155489528       -4.4726547834
 O         -3.7229057163        4.4112961876       -1.2160909533
 H         -3.0671746127        3.9965076886       -0.6131048084
 H         -3.1736453360        4.9164314560       -1.8688916083
 O          3.4411435224       -1.3348124452       -5.0764572796
 H          3.2826201702       -1.9710378503       -4.3518655114
 H          4.3249377550       -1.5405240872       -5.3880562126
 O         -7.0844455184       -2.5876803417       -1.2469311814
 H         -6.6550533677       -2.1735484792       -0.4644111015
 H         -7.8962220832       -2.9668080739       -0.8642141586
 O          0.6517495732       -1.9521349891        5.5536863477
 H          1.2682070867       -2.6242713424        5.2290146884
 H          0.3380926567       -1.4890126426        4.7468589130
 O         -3.9074179066        1.4675750846       -5.0159686753
 H         -4.7754549969        1.6472611036       -5.3955223436
 H         -4.0284893804        1.7469512191       -4.0740079113
 O          6.2962433934        3.3805844290       -0.7434072035
 H          5.7903797497        2.8752225023       -1.4027090703
 H          7.1837497421        2.9808633074       -0.7507063832
 O         -6.9753421634       -0.1869161827       -2.4289104062
 H         -7.1750180085       -1.0935776977       -2.1193290272
 H         -6.4422102848        0.2311861877       -1.7022414143
 O         -5.3240864096        4.7072313733        1.0658111284
 H         -4.8444318137        4.7973969539        0.2298252616
 H         -6.0457874591        4.0785122338        0.9068369126
 O          3.5269099303        3.8978537444        3.9471671432
 H          4.0636380135        3.0917888814        4.0585739734
 H          3.2413607576        3.9023165828        3.0191739795
 O          2.0208180310       -5.4044383102       -0.3758248722
 H          2.0181113545       -4.4381118275       -0.5888207057
 H          1.4627458859       -5.8055916258       -1.0504628512
 O          0.1412661755       -5.1691624920       -2.5998430908
 H         -0.7463454318       -5.3290660386       -2.9601252566
 H          0.3986547023       -4.3186495704       -3.0116997529
 O          4.2603416416       -2.1136120841        0.2711083284
 H          4.7705357816       -2.6636310356       -0.3563257259
 H          4.3145423338       -2.5775649741        1.1262824457
 O         -2.1839564161       -2.4385032966        5.4385599374
 H         -1.2671048669       -2.3999723764        5.7497268541
 H         -2.4874497575       -1.5133494958        5.4169393628
 O         -5.1266226011       -2.7586852907        4.3769008117
 H         -4.3260312135       -2.8157869881        4.9046063018
 H         -4.8871854721       -3.0467806308        3.4785106168
 O          6.0480928394       -1.6481288551       -3.7508158193
 H          6.6742821534       -2.0652000449       -3.1503757759
 H          6.4251017605       -0.7738679664       -3.9691683533
 O          9.2742607681        0.2185588817        1.4763075957
 H         10.2254119996        0.3069394564        1.5195518104
 H          8.9621382448        0.7972407720        0.7266921182
 O         -8.9109706948       -3.2775666830        0.6003399585
 H         -8.5414837208       -3.3004232435        1.5027962529
 H         -9.3437970697       -2.4140694148        0.5615167444
 O         -8.8656746947        1.4287110013       -1.3354332775
 H         -8.2543525655        0.9182488747       -1.9061912610
 H         -9.6262450833        1.6547775881       -1.8694112842
 O         -7.7464449941       -2.9972433129        3.0499254006
 H         -7.0249414154       -3.4042976880        3.5375697572
 H         -7.7617399221       -2.0743852288        3.3249041965
 O          3.2827072312       -3.3475502056       -3.2271968275
 H          4.1202758400       -3.4982548754       -2.7433025176
 H          3.0071265344       -4.1859181306       -3.5990587201
 O          2.4130604130       -3.7815269650        4.2438283116
 H          1.8964071562       -4.2352656423        3.5466738175
 H          2.6709070738       -4.4506976161        4.8763564313
 O          4.5513092562       -3.6717964155        2.4797602402
 H          5.3025847828       -3.2199224675        2.8826050282
 H          3.8243827024       -3.6319051983        3.1265848981
 O         -2.3909656648       -4.7314550884       -3.5111245512
 H         -3.3261753882       -4.6944241394       -3.2938881320
 H         -2.2457961053       -4.0030479380       -4.1379278265
 O          5.3406858291       -3.7689195506       -1.5466473855
 H          6.2896354367       -3.6143819946       -1.6351962455
 H          5.2042399129       -4.5261316509       -0.9210837736
 O          7.5490779921       -1.8306594087        0.9239140847
 H          8.2793521153       -1.2294411357        1.1589993195
 H          6.9878910514       -1.8667985333        1.7297594804
 O          9.0051485295       -0.1289144073       -2.5130787042
 H          8.4237258433        0.2458992609       -3.1913741929
 H          8.6100243691       -0.9726638138       -2.2519466584
 O          4.3153975069        5.1639628108        0.0258866972
 H          3.8180348685        4.5894038221        0.6266656655
 H          5.1134045293        4.6861400023       -0.2405554040
 O          2.8498027282        5.0396933117       -2.1801766717
 H          3.2613221098        5.5732341610       -2.8577612898
 H          3.3834913648        5.1656155099       -1.3597163204
 O          7.8898909423       -2.6386054891       -1.6137005074
 H          8.6756987610       -3.1867621852       -1.6306435763
 H          7.7611596564       -2.3694822403       -0.6776309138
 O         -2.0553781913        5.3259048923       -2.9923240673
 H         -1.2330929637        5.5373042605       -2.5247101430
 H         -1.8615191662        4.5613173516       -3.5623285807
 O         -1.6706908786        3.1611291663       -4.6923768753
 H         -1.3503893323        3.5322500312       -5.5136563022
 H         -2.4815960071        2.6661519818       -4.8949388870
 O         -6.6427622054       -5.0873377565        0.3198607746
 H         -7.5345630648       -4.7335877303        0.4271076949
 H         -6.4412292136       -5.0607067890       -0.6183649056
 O          4.6885038123       -5.4726757491        0.3190848524
 H          3.7567948732       -5.6497715896        0.1084640149
 H          4.6876315874       -4.9738809378        1.1503768846
 O         -6.3817333385        3.7430887333       -1.9766292464
 H         -6.9841826085        4.4856696460       -1.9911139570
 H         -5.5101469054        4.0950666084       -1.7447487796
 O         -6.4830135409        1.9988937729       -4.2080818213
 H         -6.7910434294        1.1894454429       -3.7876927225
 H         -6.4241552186        2.6512090260       -3.4928716370
 O          6.9470797679        0.8910383131       -4.0621490356
 H          6.3007713006        1.3291769113       -3.4553424487
 H          6.8742174629        1.3454550974       -4.9011081025
 O         -2.0122582817       -2.5869045895       -5.2617057065
 H         -1.8326944414       -1.6338180191       -5.1512954571
 H         -1.3702840043       -2.8856479846       -5.9068953819
 O          0.7648434007       -1.6434763136       -5.9706548916
 H          1.6998186132       -1.4195844840       -5.8516867218
 H          0.2611288619       -0.8325351515       -5.8397729483
