  192
 
 H         -0.5425054727       -1.1597997899        0.9180874641
 C         -0.6112510744       -0.5412957354        0.0100749195
 H         -0.5391309006       -1.1969145825       -0.8712437587
 C          0.5103659226        0.5037878905       -0.0094871848
 H          0.3911098899        1.1518925379        0.8600967262
 H          0.3944399667        1.1152671222       -0.9056412657
 O         -1.7891827199        0.2100258332       -0.0077307052
 H         -2.5646584661       -0.3620748052        0.0026734604
 N          1.8637423300       -0.1172781082        0.0059475216
 H          1.9871274393       -0.7237038561       -0.8163107153
 H          1.9839790217       -0.6890763989        0.8531042571
 H          2.5930831826        0.6072401008       -0.0077051388
 O          4.1914531332        0.7667569036        1.3453927737
 H          4.5811261838        0.5051686167        2.2072751099
 H          4.8298240926        1.3964984565        0.9569352375
 O          0.1116272248        0.3930571319       -3.1139604020
 H          0.9002587753        0.2164083302       -3.6422177158
 H         -0.2916008821        1.1991667984       -3.4792845120
 O          1.6065049603       -0.8145311304        2.6437296449
 H          1.1797298992       -0.0642298238        3.0967993233
 H          0.9648737661       -1.5533893441        2.6677017337
 O          0.3044379135        1.2736934796        3.8112084229
 H         -0.4896427496        1.3899100590        3.2368067767
 H          0.0265567723        0.6067530787        4.4734952569
 O         -1.2833902376        2.6768933569       -3.8146473653
 H         -1.7501473423        2.2110368093       -4.5233995298
 H         -1.8385958125        2.4847968436       -3.0211251339
 O         -4.3883492667       -0.2972845459        0.2974556626
 H         -4.6209940108        0.5097475506        0.7899289696
 H         -4.5836453170       -0.1289372942       -0.6479168455
 O         -2.7161616618        2.0381777991       -1.7170119257
 H         -2.2147211705        1.4173159308       -1.1620458693
 H         -3.1542599585        2.6618750321       -1.1040237560
 O         -1.8204484923        1.6023355011        2.2595273541
 H         -1.8524218103        1.1064670371        1.4212856952
 H         -1.8250612667        2.5558857812        2.0248566721
 O         -0.2592000240       -2.7686523919        2.6550061816
 H         -1.2128439233       -2.6079719910        2.5357018368
 H         -0.0337402678       -3.3092526044        1.8620622450
 O         -4.6219645592        0.2472880556       -2.2877704794
 H         -4.5880055682       -0.3922319644       -3.0347447378
 H         -3.9023518801        0.8971744063       -2.4057818768
 O         -6.8040477436        1.6964741387       -1.9490850530
 H         -5.9807454019        1.1838030030       -2.1145989920
 H         -6.5120276651        2.6319361665       -2.0455449594
 O          2.8009280480       -2.6149856805        0.8966111534
 H          3.7015121793       -2.4196094311        1.2205747621
 H          2.4496634903       -3.2326861243        1.5686918542
 O          2.0779777961       -1.6604078787       -2.1566376089
 H          2.3405885320       -1.1246826843       -2.9328740395
 H          2.7388078307       -2.3663202317       -2.0407534094
 O         -1.8607962688       -1.4074063815       -3.2004287764
 H         -1.0982266400       -0.7898311700       -3.1120789906
 H         -2.2454432949       -1.5238095375       -2.3173819290
 O         -2.8638334413       -2.2418823669        1.9946911276
 H         -3.5364249352       -2.8892568381        2.2173959434
 H         -2.9970802119       -1.4765373468        2.6036396966
 O          2.9792819435        2.1849359206       -0.8843233999
 H          3.3712900411        3.0148666706       -0.5924048343
 H          2.1592066357        2.4352099188       -1.3505773211
 O          4.3052706949        1.8151052825       -3.1853209236
 H          5.2132492330        1.5161171867       -3.0465061091
 H          3.8868889888        1.7961141388       -2.2987045279
 O          0.8943675719        3.3189614605       -2.1682178454
 H          0.1828146354        3.1706644297       -2.8064540836
 H          1.5879481747        3.8256602354       -2.6457965527
 O         -5.2526493396        1.7232396692        1.9320909695
 H         -5.4653931412        1.0661775027        2.6275488063
 H         -6.1051669825        1.8734907934        1.4683864120
 O          0.7839121572        4.1729363713        0.4276711267
 H          1.2283379808        3.4370663466        0.8742564840
 H          0.7363282866        3.9459100709       -0.5168356282
 O         -0.0836548492       -4.1289984502        0.3899910117
 H          0.0258747516       -3.8224012175       -0.5281378776
 H         -0.9367650666       -4.5831798889        0.3876945617
 O          2.1329081726        2.3326462053        2.0537908374
 H          2.8517217928        1.6889807405        1.8670243297
 H          1.6400365590        2.0142243887        2.8252559605
 O         -3.8314678444        3.4710252809        0.2648953486
 H         -3.0985960303        3.9080707182        0.7336311251
 H         -4.2698972844        2.9011914682        0.9101261468
 O          5.9485333761        2.5790885159        0.2533077241
 H          6.2246102399        2.0015419279       -0.5003121175
 H          5.4639641385        3.3269842293       -0.1320299529
 O         -1.6082417790        4.1818860819        1.6107269540
 H         -1.4276388954        4.3682962613        2.5538496554
 H         -0.7530399062        4.2917137040        1.1420292062
 O         -3.0590854286       -0.2807590897        3.7584055774
 H         -2.7590533579        0.5638813244        3.3705209985
 H         -3.9868622648       -0.1616271061        4.0048883228
 O         -5.7962860406       -0.2146372421        3.7280174414
 H         -6.5963863410       -0.2926410499        4.2469054968
 H         -5.8038172316       -0.9761745602        3.0843769993
 O          3.3091108682        4.6872088839        2.1180505776
 H          2.6102327853        5.3378081274        2.2065632371
 H          2.8552540742        3.8092174141        2.1710145058
 O         -5.7956850020       -1.9918883490        1.7979101000
 H         -5.2071018433       -1.4737093678        1.2026505874
 H         -6.7051979470       -1.7500840191        1.5001488196
 O          4.7029965917       -0.8426878731       -0.8014017576
 H          4.5154963540       -0.4237865496        0.0585796082
 H          5.1589115808       -1.6834860518       -0.6019103929
 O          4.2600367800        4.6498397122       -0.3438197810
 H          3.8790889174        4.7284210256        0.5716575515
 H          4.6964994261        5.4835492781       -0.5175277130
 O          5.3500740918        0.5769231357        3.7463553734
 H          5.4447193981        1.5482804302        3.7202348998
 H          6.2211506234        0.2139694198        3.5638194849
 O          2.6739198576       -0.0664286933       -4.2491826016
 H          3.2362275145        0.6811485994       -3.9578104002
 H          3.2941749680       -0.7047301802       -4.6182565795
 O         -2.8949865564       -2.3585802475       -0.7577141562
 H         -2.9506978955       -2.2591882360        0.2105848288
 H         -2.6332216527       -3.2898296065       -0.8607224317
 O         -0.6727572661       -0.9271280614        4.9561583711
 H         -0.4238751601       -1.7227065339        4.4746243551
 H         -1.6045327225       -0.7644417203        4.7357010686
 O         -5.1844079820       -4.3743829198        0.5381545372
 H         -5.4737641061       -3.6687089815        1.1405832881
 H         -5.4528004388       -4.0698913151       -0.3454718580
 O          3.4085445279       -3.8761500739       -1.2946672139
 H          2.8384912181       -4.6305716788       -1.4462649446
 H          3.0918192091       -3.4597645625       -0.4425983185
 O         -5.4235485534       -2.8027853478       -1.7239849897
 H         -4.5916516263       -2.4557248784       -1.3441565481
 H         -6.1063371338       -2.1225172313       -1.6221372502
 O          5.9204531282       -3.2577017211       -0.5023615758
 H          5.8225317403       -3.2883424965        0.4623602259
 H          5.1362787746       -3.7076048154       -0.8673081291
 O          3.1639366793        4.3447637489       -3.1013675099
 H          3.6003748535        4.6009852274       -2.2819907643
 H          3.6307780887        3.5565619586       -3.4248068401
 O          6.9614662923       -0.2646479849        1.4403903972
 H          7.3736636510       -0.6167579194        0.6359136739
 H          7.4880507295        0.5191401119        1.6818491181
 O          5.2581892581       -2.3099864763        1.9631314553
 H          5.8748880847       -1.5633977252        1.8816093918
 H          4.8309179959       -2.2250080248        2.8398407503
 O          7.9291677784       -1.4122073838       -0.9109686251
 H          8.8069843712       -1.7947291029       -0.9166547851
 H          7.3017698900       -2.1564090392       -0.8996307333
 O         -5.5920211515        4.0481699007       -1.8319013510
 H         -5.0961833604        3.9945039072       -1.0024562129
 H         -4.9284828518        4.2982795719       -2.4913062166
 O         -7.5881916866       -0.9992515278       -1.8391576825
 H         -8.1065853881       -1.3383242023       -2.5697748717
 H         -7.4666215849       -0.0493929243       -1.9953576386
 O         -7.5200602463        1.8065441373        0.5530189431
 H         -8.1710153928        2.5062525640        0.6078529417
 H         -7.2533742472        1.7533246183       -0.4109392277
 O          3.7068265879       -1.7047751078        4.0703335338
 H          2.9514164666       -1.3455879570        3.5544557781
 H          4.1812332761       -0.9373677464        4.4059597542
 O         -2.8993410897        0.7033879508       -4.7516719376
 H         -2.5393645985       -0.0830912288       -4.3091384949
 H         -3.6339410148        0.3971100547       -5.2839988184
 O          2.2883041694       -4.0233660139        3.1298323011
 H          2.8257201968       -3.4948760313        3.7315340681
 H          1.3702871949       -3.9098024643        3.3918199163
 O          6.4733188153        0.8876767547       -1.7109256124
 H          7.3045823119        0.4029448471       -1.6993037650
 H          5.8020622147        0.2221451744       -1.4143470496
 O          5.5821462193        3.1802657298        2.9909199521
 H          5.7088110376        3.0188575799        2.0442878068
 H          4.8954651217        3.8530235135        3.0499741302
 O         -1.1259771598        3.8430400247        4.2217242030
 H         -0.4868562396        3.1322939803        4.3499251048
 H         -1.9995273191        3.4363454089        4.3331883114
 O         -2.6858181494       -4.9903116576       -0.1667374292
 H         -2.7283321395       -5.7794750235       -0.7053802866
 H         -3.5865870514       -4.8601666761        0.2091458811
 O         -8.0192979784       -0.9134569994        0.8867036916
 H         -8.0396013488       -1.1295354562       -0.0578712379
 H         -7.9330891954        0.0531240730        0.9186374670
 O         -3.6597254636        2.6170082923        4.1076439774
 H         -4.3141377796        2.7802183361        4.7849941504
 H         -4.1385529408        2.4969763378        3.2756979224
 O         -4.5238916646       -1.7469071508       -4.0668955833
 H         -3.5892233864       -1.9852749853       -4.0682593722
 H         -4.9524338924       -2.3569710650       -3.4382879678
 O         -0.0405483231       -3.3347533023       -2.2236729261
 H          0.7242074543       -2.7333582006       -2.2848138343
 H         -0.7376565878       -2.9242885417       -2.7516731423
 O         -3.1646858696        4.7156302763       -3.0405127933
 H         -2.6695764030        5.2132749732       -2.3883362082
 H         -2.5220208559        4.2112603488       -3.5559878190
 O          8.1235758010        2.1179717098        1.9807725333
 H          7.6847625003        2.5181880624        1.2187460490
 H          7.7772479520        2.5708832189        2.7539948327
 O          4.7012675742       -1.7714348868       -3.4926030472
 H          5.0943851595       -2.6396772280       -3.4057346917
 H          4.6873207205       -1.3840074942       -2.6070594044
