 xtb: 6.5.1 (579679a)
          11032200493D

 12 11  0     0  0            999 V2000
   -0.5394   -1.1792    0.8949 h   0  0  0  0  0  0  0  0  0  0  0  0
   -0.6106   -0.5421    0.0000 c   0  0  0  0  0  0  0  0  0  0  0  0
   -0.5394   -1.1792   -0.8949 h   0  0  0  0  0  0  0  0  0  0  0  0
    0.5098    0.5045   -0.0000 c   0  0  0  0  0  0  0  0  0  0  0  0
    0.3914    1.1343    0.8831 h   0  0  0  0  0  0  0  0  0  0  0  0
    0.3914    1.1343   -0.8831 h   0  0  0  0  0  0  0  0  0  0  0  0
   -1.7894    0.2080    0.0000 o   0  0  0  0  0  0  0  0  0  0  0  0
   -2.5642   -0.3651    0.0000 h   0  0  0  0  0  0  0  0  0  0  0  0
    1.8639   -0.1151   -0.0000 n   0  0  0  0  0  0  0  0  0  0  0  0
    1.9864   -0.7042   -0.8349 h   0  0  0  0  0  0  0  0  0  0  0  0
    1.9864   -0.7042    0.8349 h   0  0  0  0  0  0  0  0  0  0  0  0
    2.5924    0.6104   -0.0000 h   0  0  0  0  0  0  0  0  0  0  0  0
  1  2  1  0  0  0  0
  2  3  1  0  0  0  0
  2  4  1  0  0  0  0
  4  5  1  0  0  0  0
  4  6  1  0  0  0  0
  2  7  1  0  0  0  0
  7  8  1  0  0  0  0
  4  9  1  0  0  0  0
  9 10  1  0  0  0  0
  9 11  1  0  0  0  0
  9 12  1  0  0  0  0
M  CHG  1   1   1
M  END
