  612
 
 H         -1.5139430104       -0.4165893039       -1.2608048315
 C         -0.4686037036       -0.2475377369       -1.0242554912
 H          0.0649964998       -1.1925536453       -1.0718494213
 C         -0.3472124746        0.3289931531        0.3776419608
 H          0.6398622427        0.7631133246        0.5053133284
 H         -0.4818380911       -0.4622597858        1.1050664180
 O          0.0216944637        0.6582383343       -1.9842224567
 H          0.9900826568        0.7622087837       -1.8006978146
 N         -1.3595511784        1.3799654954        0.5627482096
 H         -1.3449608590        2.0499025520       -0.2494198792
 H         -1.1778564795        1.9351802695        1.4232612939
 H         -2.2961501163        0.9655337608        0.5972448351
 O          2.6345981932        4.3448176797        1.9870769720
 H          2.5594934294        3.3712377065        1.8288706580
 H          3.1786229511        4.6477632466        1.2292716404
 O          3.3875060541        3.4623200200       -2.5494325023
 H          3.4960938635        4.1249223731       -3.2550643720
 H          3.9960406897        2.7427621443       -2.7599440318
 O          8.1425086576        3.2376678408       -0.1775680176
 H          7.8918587917        2.6371881682        0.5536765607
 H          7.3531050707        3.3339893252       -0.7568661492
 O         -0.6758259690        2.2942769628        3.0459316491
 H         -0.9613354480        1.3735375794        3.2813181333
 H          0.2957288769        2.2551156036        3.1785827433
 O         -6.5147610828        3.7700051249       -0.2286315016
 H         -6.9370700108        3.2786229717       -0.9648848157
 H         -5.5722285424        3.5277449656       -0.2683094253
 O         -4.9542389767       -5.3987413210       -5.0627417879
 H         -4.8295469355       -4.4367950192       -5.1896975450
 H         -4.1124311708       -5.7997214572       -5.2859375620
 O          2.3832795256       -0.3741100021        2.3177145429
 H          3.0701968498       -0.4085149331        2.9951317638
 H          2.4706362193        0.4777103601        1.8601068704
 O          6.1376013155        6.5342315963       -0.3590362381
 H          7.0611034953        6.3112316371       -0.1490496343
 H          5.7539091236        6.8443731647        0.4742502953
 O          1.2904437997       -2.1934212562        0.7852531619
 H          1.7574045437       -1.5242720673        1.3378128199
 H          1.8094347573       -3.0065356432        0.8113871436
 O         -4.3605269779       -3.7349128311       -2.6243618472
 H         -5.2575970622       -3.8912835015       -2.9614668562
 H         -4.2695008371       -4.2824249703       -1.8108384981
 O          1.2795425151        3.3190228919       -0.9496938959
 H          1.9535587082        3.0766103539       -1.6118232836
 H          1.3911283235        4.2769354431       -0.8242680064
 O          6.1352364291        3.4842212704       -1.8782215153
 H          6.3444503060        4.3174518854       -2.3438256361
 H          6.5047614670        2.7690892694       -2.4317882621
 O         -5.1351154524        0.3066241506        1.5248002745
 H         -4.3306612660       -0.2397143025        1.5167475957
 H         -5.5554100674        0.1798938827        0.6543538451
 O          0.8765391555       -0.7682827603        4.6040432458
 H          1.3179961040        0.0268239016        4.2463214708
 H         -0.0387672109       -0.7037967137        4.2809862348
 O          1.6868268671        1.8176516406        3.9948013480
 H          1.5810026265        2.3828367196        4.7825644957
 H          2.6003354796        1.9736551023        3.6907129050
 O          3.9928902633       -0.8212778625        0.0006378890
 H          4.4195766422       -0.2758570108        0.6818732799
 H          3.8956058715       -1.6840007538        0.4391588778
 O         -4.6184246450       -4.3310108446        5.2691814340
 H         -3.7118816370       -4.6720531212        5.2074357868
 H         -4.6642852423       -3.5053893372        4.7388616739
 O         -0.2280529947       -3.4138890785        2.6010359042
 H          0.2689983923       -2.8278403624        1.9970059610
 H         -0.4806851688       -4.1964097044        2.0507070424
 O         -1.4946943127       -0.1185440400        3.5317990356
 H         -2.3112846829        0.0090892414        4.0628116986
 H         -1.8353569035       -0.5220842379        2.7076733053
 O         -1.4867722130        0.7530761178        6.8017107424
 H         -1.2896496100        1.6056482498        6.3568518910
 H         -2.3834842760        0.8457665094        7.1451735419
 O          7.5312353751        3.3958077970        3.8576472383
 H          7.0741037464        3.2258410572        4.6903301058
 H          6.8573246625        3.7740061215        3.2547545017
 O         -3.5091693079        5.9538332245       -0.0038375740
 H         -4.1841526997        5.5704915538        0.5845888315
 H         -2.7853226059        5.2928146420        0.0372259344
 O         -5.6584567860        2.4351962740        4.2614843047
 H         -6.1893101403        2.5465553807        3.4557280049
 H         -5.3391219861        1.5231044610        4.2496742748
 O         -1.8930376845       -3.0147075576       -0.1629844562
 H         -2.6060163943       -3.6835141107       -0.1439901214
 H         -1.0642555491       -3.5222398065       -0.1479711513
 O          2.2518918852       -2.1127189565       -1.7947648917
 H          1.8681219470       -2.0320366993       -0.9079221130
 H          2.7565456917       -2.9414379757       -1.7993433774
 O         10.3117114569        3.1704089797       -1.8377817896
 H         10.2082587771        2.4367089868       -2.4635122787
 H          9.5804116979        3.0987567874       -1.1909823127
 O         -3.3997282972        2.2684944022        2.4196354662
 H         -2.6170187145        2.6371628816        2.8350456281
 H         -3.7123753992        1.5407298213        2.9719982650
 O          2.5857443492        0.8887542053       -1.5109733301
 H          3.0027382091        0.2181020617       -0.9440362523
 H          2.8271432712        0.6826478443       -2.4236618297
 O         -1.8380914905       -1.8121552748        5.9732744689
 H         -1.6129317899       -0.8967143329        6.2179646494
 H         -2.6142280435       -2.0518625306        6.5241366600
 O         -2.5768395544       -2.8561578576        3.6047601801
 H         -2.4320310524       -2.4281996075        4.4672249734
 H         -1.6808954516       -3.0080632418        3.2290639035
 O         -0.2243910880        0.8188721772       -7.1023725177
 H         -0.1066284041        1.7805155237       -6.9642636072
 H         -1.0745035091        0.6973446685       -7.5377093715
 O          4.1295316783        7.0464842898       -2.2390343501
 H          3.3502192570        6.7050080118       -1.7602734042
 H          4.8762133561        6.9580976343       -1.6309681047
 O          0.0419355924        3.3555335785       -6.2333649645
 H          0.9838157847        3.4622588501       -6.4729501294
 H          0.1021045699        2.9588491190       -5.3303518557
 O          4.6337076046       -0.9137833069       -2.7933224592
 H          4.0323638080       -1.4244020796       -3.3530602080
 H          4.3336342919       -1.0454299410       -1.8792164569
 O         -1.0648540675       -5.4166749731        1.1236559476
 H         -0.7021313369       -6.1869462667        1.5929671682
 H         -2.0063738247       -5.3513043221        1.3802539966
 O        -10.8996248909       -1.9622769860       -0.7507797744
 H        -11.3838670722       -1.1548469205       -0.9610221047
 H        -10.9730998335       -2.0932515338        0.2102833757
 O         -8.4850651412       -1.2727880705        1.3664493101
 H         -9.2493557070       -1.7852292715        1.6437550931
 H         -7.9235113528       -1.8614062324        0.8116300052
 O         -2.8677868322       -1.2039952357        1.5530670779
 H         -3.0696722405       -1.8490991869        2.2608932702
 H         -2.5569611456       -1.7547711535        0.8084496167
 O          0.5912113674        2.5152520211       -3.8073746726
 H          1.4238713763        2.0200238749       -4.0007374722
 H          0.0890278405        1.8931345880       -3.2579422866
 O         -0.3294006666        7.6422510952       -0.7565660709
 H         -0.8585763936        7.8824720475        0.0121780792
 H         -0.8843347317        7.0387725510       -1.2807717937
 O         -7.0214154907       -0.1124877607        3.3163651181
 H         -6.2255372593       -0.0070738642        2.7589929114
 H         -7.6667346590       -0.5390052414        2.7291938626
 O          6.3786343008        0.1682033448        5.1355646454
 H          5.4898100348       -0.0611394684        4.7792153750
 H          6.2744839837        1.0717620394        5.4860745868
 O         -3.7357907088       -4.9611120362       -0.4067644849
 H         -4.4279392460       -5.3253594693        0.1794439224
 H         -3.2788006872       -5.7424997941       -0.7763476768
 O          2.5673149899        1.9692696678        1.0061983140
 H          2.0635964676        2.3033432562        0.2358130585
 H          3.5035446521        1.9832965138        0.7070311464
 O          5.1002230064        2.2617926108        0.2645014444
 H          5.1768545186        2.7670348612       -0.5592465820
 H          5.6103102697        1.4395788658        0.1249530877
 O          0.1446487170       -7.2945511382        2.6519138811
 H          0.8213903941       -6.6766047655        2.9847362350
 H          0.5941577820       -7.8600067700        2.0066264734
 O         -6.2246076071       -5.8010952873        3.5911245919
 H         -6.9140464750       -5.1448016029        3.4082558708
 H         -5.6433291550       -5.3906146862        4.2573395410
 O          2.0480522055       -6.9308919634       -2.9878120707
 H          1.8237996646       -5.9791745910       -3.1164001647
 H          2.4095783326       -7.2242394781       -3.8268526870
 O          2.7096218581        3.3294056065       -6.3131724911
 H          3.3645275433        3.9350906220       -6.6574819386
 H          3.0271224974        2.4303904845       -6.5490429757
 O          4.0267601193        4.7594990543       -0.2287246230
 H          3.7713883633        4.3227464137       -1.0611032087
 H          4.8358423367        5.2582140675       -0.4037669063
 O          3.3570842935       -2.7354167839       -4.4821378887
 H          2.7711476595       -3.2028907751       -3.8623549400
 H          2.9366426844       -2.8562174540       -5.3500276269
 O         -2.6294607580        2.2936974690       -3.5725503150
 H         -2.7033682340        2.8544783866       -4.3638023177
 H         -2.1073973428        1.5157294575       -3.8625462568
 O         -0.5105098641       -4.0277739445       -5.3436110990
 H         -0.9613006191       -3.2221320764       -5.6627487970
 H         -1.2067900102       -4.5821386751       -4.9652764445
 O          2.9896733094        5.3343375886        4.3909964884
 H          3.8670077617        5.0932186283        4.6913485869
 H          2.8828193557        4.9293828792        3.4945855172
 O         -1.3093651471        5.6341043726       -2.3398880710
 H         -0.5358876807        5.5518565771       -2.9225395229
 H         -1.3815202291        4.7623719842       -1.8745826337
 O          5.2497353939        0.1713362648        2.2526226176
 H          6.0397216022        0.6891655853        2.0027720799
 H          5.5844982952       -0.7100712196        2.4972528462
 O         -3.7056010039        3.9603348230        5.2347839572
 H         -4.3475114300        3.3230363367        4.8569226024
 H         -3.3580361806        4.4706641036        4.4730324026
 O          5.5599524418        2.6644892876        5.7504327987
 H          4.9531871164        2.4493618778        6.4676285074
 H          5.0095029353        2.5598098828        4.9346486310
 O          0.5708777695       -1.5485321160       -3.8219621697
 H          1.2414538218       -1.6347764415       -3.1177977744
 H         -0.1990974539       -2.0639597261       -3.5142111822
 O         -1.2074459022        0.3212675255       -4.5588963197
 H         -0.5260060421       -0.2095777404       -4.1015392902
 H         -0.8953907442        0.4496667900       -5.4695176192
 O         -1.2835037587        3.1728930950       -1.4685960475
 H         -1.7005625243        2.7596679280       -2.2523214362
 H         -0.3048350016        3.0841837954       -1.4870814664
 O          0.2510415698       -4.4428472515       -1.1092581440
 H         -0.1169103560       -5.3430046031       -1.0961872305
 H          0.9920931705       -4.4828771581       -0.4753072654
 O          9.9118014754       -3.4245452746        2.9873338640
 H          9.1857637132       -3.5969638055        3.6063728825
 H         10.3845088396       -2.6689667992        3.3461725141
 O          4.7228873794       -5.5975015122        3.1684282500
 H          5.2233088076       -5.2838015001        2.3958143399
 H          4.8523325715       -4.9241155012        3.8555223263
 O         -8.1906496864        3.8063060317        4.4398574085
 H         -7.9879368157        2.8972682010        4.7585969830
 H         -8.9036718322        4.1315937981        4.9877377363
 O          9.8136536350        4.2091240106        2.6271454671
 H          9.0127996942        3.9674627576        3.1289855541
 H         10.5041444296        4.3735769077        3.2690770082
 O          9.3811815697        5.7481098473       -2.2111351022
 H          9.2284584216        5.9340588174       -1.2695746830
 H          9.8435326111        4.8931120283       -2.2298211387
 O          8.6180846091        5.7216713505        0.4538211227
 H          9.1629212376        5.7084113283        1.2445408886
 H          8.4496072043        4.7628220146        0.2673189052
 O         -3.4315436937        0.4001057320       -1.1212266546
 H         -3.4830696695        0.3129400434       -2.0819249900
 H         -3.8059326921       -0.4427162971       -0.7872128104
 O          3.6471985837        0.9074931459       -7.0080967688
 H          2.9952525013        0.1980634093       -6.9552933960
 H          4.4599856764        0.5549515206       -6.6065235870
 O         -3.9285412657        0.2838457586        4.4030926575
 H         -4.3807825897       -0.5859714797        4.2708783621
 H         -3.9511434229        0.4756573293        5.3590395313
 O         -8.6046981418       -1.0363334002       -1.8802579161
 H         -9.4188531001       -1.2635832687       -1.4042610035
 H         -8.7854977183       -1.2319866721       -2.8160740423
 O         -7.6947199479        0.6633204245       -4.5482392276
 H         -7.4402293376        1.6027365090       -4.5603584661
 H         -8.6110643934        0.6593999367       -4.2263558058
 O          8.7043609550       -4.0199026949        0.6136802554
 H          8.7330042982       -3.2083680671        0.0638179790
 H          9.1939687952       -3.8343003351        1.4319954533
 O          8.9292642741       -1.9703928691       -1.1391629797
 H          8.2581672258       -1.7146731614       -1.7960515565
 H          9.6743362845       -2.3651135335       -1.6383659771
 O         -4.2731585269        1.0461583193        6.9536083028
 H         -4.6232840781        1.9364286743        6.8748079400
 H         -5.0330647093        0.4448752989        7.0519869613
 O          0.4358371119        5.4702873421        1.1556186894
 H          0.0416776643        5.9304930919        1.9270158852
 H          1.1765254022        4.9278556363        1.5080053379
 O         -8.5336739225        4.9038653748        1.7882597577
 H         -7.9071763344        5.6011036715        1.5171440026
 H         -8.1868480964        4.5123562425        2.6011171981
 O         -2.7195414721        5.3370563827        3.1680804798
 H         -1.9249432238        5.8507084638        3.3843857071
 H         -3.4029130728        5.9905839754        2.9102781863
 O          1.8612779001        7.7806956180        3.6893348177
 H          2.2707491881        6.9770827399        4.0487751071
 H          2.0700358221        7.7955380237        2.7392420162
 O         -0.0595339122       -3.7309437556        5.2662754344
 H         -0.5458164529       -2.9486072143        5.5964380170
 H          0.0561316475       -3.5929530799        4.3024139419
 O          8.4278614800       -0.9001248865        1.6599714888
 H          9.1839680879       -1.3256062236        1.2253059282
 H          7.6864910232       -1.5298476625        1.7264948678
 O         -1.9917299805       -2.0001700007       -6.3317646059
 H         -2.8839558011       -2.3536184402       -6.1836430257
 H         -2.1164811563       -1.0708050537       -6.5488139851
 O         -9.6184831390        1.7224068870        2.8512252467
 H         -8.6916206536        1.9193028183        2.6337489844
 H        -10.1051784776        2.5503672722        2.7284865887
 O          2.5850147668        0.8959457051       -4.2284817314
 H          3.4922971307        1.2499497654       -4.2788549567
 H          2.4516796933        0.2681144245       -4.9512792521
 O         -2.6745591861        3.7142620757       -5.8812740592
 H         -2.8770063493        4.5629780974       -5.4512059048
 H         -1.7486548867        3.7492190878       -6.1676519463
 O          6.0163983676       -2.0435798749        6.6715689014
 H          5.2123749596       -1.8485200457        7.1713167642
 H          6.2527204823       -1.2115416856        6.2135211318
 O          3.2794987226       -1.8011040190        7.0652061344
 H          2.5563162685       -1.2340307270        7.3703352693
 H          2.8915635493       -2.6835923051        6.9499176984
 O          3.0173870012       -5.7228393977       -5.3647347756
 H          2.4700613960       -5.1629575761       -4.7908949846
 H          2.9404947417       -5.3149693869       -6.2330741284
 O          5.8354684117        4.0575427655       -5.1934487348
 H          6.4306574521        4.5718168089       -4.6215194673
 H          4.9916414232        4.5291937814       -5.1140530975
 O          3.9826430727       -4.2289681542       -1.8755445141
 H          4.6558977054       -3.6618534218       -1.4646400154
 H          4.3745385537       -4.6150295543       -2.6670873305
 O          6.3475560669       -2.2849931200        2.5266778993
 H          6.6793077809       -2.7358646577        3.3208353780
 H          5.5625437485       -2.7644736669        2.2031810766
 O         -0.0917076918       -7.1578162626       -1.2977838117
 H          0.2589176306       -7.6444663815       -0.5359394767
 H          0.5746676433       -7.2405068459       -1.9975814452
 O          2.3747220055       -2.8477296284        3.6856080725
 H          1.8502372593       -2.0771420260        3.9811823763
 H          3.1423976883       -2.9331174908        4.2758698826
 O          9.0943703501        0.6879154675       -0.6945340333
 H          9.5359531591        1.0292385086        0.1035913065
 H          9.2992815277       -0.2597524853       -0.7659223173
 O         -7.9724557009        1.2391216350        5.3566842554
 H         -8.8478557753        0.8565719832        5.4523569224
 H         -7.5912406311        0.7965948447        4.5549642489
 O         -4.1221618881       -2.4607622753        7.2001483431
 H         -4.8451235173       -1.8260269020        7.1810863624
 H         -4.4264068077       -3.2258889691        6.6754407172
 O         -9.4613323791        3.4896929349       -3.5678241202
 H         -9.4819248125        4.1804762689       -2.8910540060
 H         -8.7096739097        3.6832276941       -4.1524533223
 O         -1.5865392777       -2.7517512802       -2.7812103917
 H         -1.6793261258       -2.7758096471       -1.8038351006
 H         -1.7384581658       -3.6567517148       -3.0914888194
 O          1.4650146717        3.6686536817        5.9471315514
 H          0.4971403546        3.7312401414        5.9732624407
 H          1.8224590955        4.4336732920        5.4645204028
 O         -9.0198642775        4.9343897874       -1.1949258125
 H         -8.7037027005        4.6722286553       -0.3206321513
 H         -8.3211567241        5.5067567066       -1.5421577930
 O         -4.5647152753       -1.9306329103       -0.6306261336
 H         -4.4308415520       -2.4857393149       -1.4213572200
 H         -5.4457882103       -1.5258548990       -0.7380128089
 O         -7.5944895353        2.2032967903       -2.0606530158
 H         -8.0067031277        1.6280996059       -1.3921925533
 H         -8.3166106531        2.5825659838       -2.5893816349
 O         -1.1818270437        3.1196172566        5.5650436228
 H         -1.0153075454        2.9249370921        4.6198268390
 H         -2.0952704476        3.4662282202        5.6122755482
 O          6.1661950251       -4.7304678824        0.9784243174
 H          6.0460438300       -5.5207014796        0.4254314566
 H          7.1301957235       -4.5608781076        1.0013694472
 O          5.9711953687       -2.6842124108       -0.7514454360
 H          6.0809179984       -1.7583714994       -0.4711744811
 H          6.0044318006       -3.2581594575        0.0375407269
 O         -7.7217941428       -3.8381348373        2.3848113651
 H         -6.8544090924       -3.5300443201        2.0273826861
 H         -8.1606892413       -4.2787642917        1.6569758998
 O          2.2263797796        7.4668903039        0.9831565548
 H          2.0326474650        8.0911300946        0.2832929261
 H          1.5773638864        6.7308651598        0.8762625090
 O         -9.5619560949       -3.8368942130       -2.4421743520
 H         -9.7581847459       -3.3389352520       -3.2486769198
 H        -10.0631480276       -3.3814657724       -1.7526613770
 O        -11.0920627776        0.8812419321       -1.0971884018
 H        -11.3767475491        1.8231718038       -1.0915025109
 H        -10.1772735741        0.9252157592       -0.7424431242
 O         -9.8353684820       -0.6857236634        4.2002925306
 H        -10.3070687047       -1.2844231652        3.6094352955
 H         -9.7598006745        0.1533847151        3.7153402367
 O         -7.7187307221       -2.3491771004        4.8109005932
 H         -8.4328605544       -1.7006970805        4.6731677623
 H         -7.8276093808       -2.9949929117        4.1008358269
 O         -3.4268895593       -5.0470793735        2.3483175742
 H         -3.1494072698       -4.3610522982        2.9808492477
 H         -3.3669879057       -5.9053217391        2.7979554507
 O         -4.4958471729       -2.7257449281       -5.4828664929
 H         -5.3814043058       -2.4332833594       -5.7445956549
 H         -4.2394904409       -2.1784325555       -4.7136861279
 O          8.9625404376       -0.4890371363       -5.0531863351
 H          8.7321520929        0.2320634333       -5.6491587605
 H          9.5607328423       -0.0783630098       -4.3951874574
 O         -2.4230406323       -5.2254138557       -3.6843501478
 H         -2.4341466831       -5.9819592495       -3.0886450201
 H         -3.2326731866       -4.7054895545       -3.4645263075
 O         -5.2454114261       -3.1569603074        1.6583180874
 H         -4.6930383557       -3.9502388213        1.7654591333
 H         -5.0146409163       -2.7560312262        0.7936671000
 O         10.6223211787        0.8094369163       -3.3338103055
 H         10.9407161412        0.2425723862       -2.5914049863
 H         11.3984529790        1.0403621257       -3.8448216888
 O         -2.7702093140       -7.1798325678       -1.5390495570
 H         -1.7999136903       -7.2393072924       -1.4733192789
 H         -3.0939655191       -7.6690180361       -0.7529698603
 O         -5.2513549694        0.4251937561       -5.6859669805
 H         -5.1640146608        0.7137323539       -4.7483501712
 H         -6.1615358369        0.1232848117       -5.7695109720
 O          1.7109500560        5.9906066462       -1.4657781956
 H          1.0165446127        6.5943545945       -1.1472181816
 H          1.5047906039        5.7984763764       -2.3863108877
 O          2.2995185168       -4.8149656244        0.5809481360
 H          2.0735524460       -5.1575795280        1.4778174720
 H          2.7161716964       -5.5571097041        0.0982732366
 O         -1.8513380623        4.1324126404        0.9016519093
 H         -0.9506765794        4.5031637148        0.8342688509
 H         -2.1971291718        4.4425634184        1.7596190598
 O          1.8944012438       -3.5299263947       -6.6922168941
 H          1.7755532021       -2.5879167573       -6.8925286236
 H          1.0275801661       -3.8284142466       -6.3782704859
 O         -6.9676194350        3.3792442898       -4.6191231248
 H         -6.3437976705        3.7110260177       -3.9527477447
 H         -6.4772549926        3.3777272775       -5.4654016606
 O        -11.6779285694        0.4233303106        1.5324622117
 H        -11.6211417658        0.6166999305        0.5767578025
 H        -10.9521216852        0.9216016885        1.9477968160
 O          7.7713127545        1.6333330451       -2.9001176656
 H          8.4020087454        1.5893120695       -2.1655820977
 H          7.4900819489        0.7010185937       -2.9956839751
 O         -4.6657086363        7.2228684101        2.6393990155
 H         -5.2711643499        7.0815994487        1.8882537486
 H         -5.1743321646        6.9237231982        3.4034463889
 O         10.9328036411       -1.6803299173        0.9038525046
 H         11.1725038273       -1.1456150853        1.7033135217
 H         11.2300637301       -2.5755361303        1.0716587391
 O          2.0704531268       -5.4660172077        3.1149139863
 H          3.0317256030       -5.6631406096        3.1908154838
 H          1.9721470477       -4.5480493115        3.4333748717
 O         11.2430171104       -0.2202879834        3.0748730247
 H         11.0184859701        0.5951504206        2.5814116965
 H         10.5349837142       -0.3198945228        3.7280378838
 O         -5.5658460441       -6.3071854742       -2.5234914391
 H         -4.7913581453       -6.8325416588       -2.3068209483
 H         -5.4843079531       -6.0313641816       -3.4551552000
 O          5.0834403538        1.7899987122       -3.9313534078
 H          5.3628645709        2.5715886514       -4.4484423072
 H          5.4033191003        1.0108169027       -4.4140385690
 O         -6.4081125158       -0.6119674570        6.6617877035
 H         -6.9577902066        0.1246485879        6.3338318505
 H         -6.7747377631       -1.3900720868        6.2199484478
 O         10.8850338206       -3.2012222674       -2.5112138657
 H         10.4791827275       -3.1759226320       -3.4091211031
 H         10.7152041057       -4.1038452538       -2.2062179744
 O          9.1465919049       -5.2845829823       -1.7876796948
 H          8.5477748617       -4.6216073335       -2.1844359200
 H          9.0908484280       -5.1182385496       -0.8334619830
 O          3.7887620816       -0.3276434870        4.8118633025
 H          3.6377886958       -0.9999162699        5.5009836891
 H          3.5246310132        0.5005995629        5.2516427283
 O          7.7812935622       -3.1081372295        4.7035025610
 H          8.1917467707       -2.2129206857        4.6869916092
 H          7.3366912950       -3.1674938583        5.5535099830
 O         -2.4866761237       -7.3351495892        3.4624261375
 H         -2.4430018333       -6.8660775823        4.3079911835
 H         -1.5601306834       -7.4619730732        3.2041089677
 O        -11.1312978910       -2.0382282326        2.0025272355
 H        -11.4159151327       -1.0803641464        1.8630054985
 H        -11.8998608473       -2.5158654054        2.3125886868
 O         -6.3145554981        0.0827892026       -0.8271194962
 H         -5.8459439578        0.4889146450       -1.5697176982
 H         -7.1484880608       -0.2485772855       -1.1927682744
 O         -7.2578515354       -2.6395484554       -5.8745943290
 H         -7.1499595369       -3.1643905424       -5.0410609207
 H         -7.4644008954       -3.2690061133       -6.5642377975
 O          3.6416948375        5.4777372399       -4.3347281088
 H          3.9079718837        6.1399336258       -3.6575949041
 H          2.6854502326        5.5552823859       -4.4371342551
 O          7.1743559982       -3.7345013267       -2.8075920714
 H          6.7999905404       -3.2672701651       -2.0171162224
 H          6.5696006147       -4.4585122216       -3.0082519641
 O        -10.3149474378        0.8412046518       -3.7421461831
 H        -10.6434849793        0.7295228229       -2.8303199072
 H        -10.2856351907        1.7988674429       -3.8759898731
 O        -10.9817577266        3.9873610728        2.0166965936
 H        -11.5932886112        4.6379105980        2.3589654161
 H        -10.1249794171        4.4447651034        1.8604647082
 O         -3.6432715120       -8.0469377500        0.8424842302
 H         -4.4461432702       -7.5011522921        0.9187719271
 H         -3.2326673785       -8.0148958043        1.7132188196
 O         12.2727423250        1.9331594868       -0.4181294716
 H         12.3334954695        1.0650911178       -0.8321203497
 H         11.7094136712        2.4867874383       -0.9957048247
 O         -3.2321477169        5.7314842156       -4.1266268959
 H         -3.7095888641        6.5405572086       -3.9111364484
 H         -2.5112494896        5.6981030066       -3.4494388010
 O         -8.7542738824        1.0722407781        0.1246926060
 H         -8.6481039873        0.1815519823        0.5154678939
 H         -8.2544416972        1.6598869187        0.7163283461
 O         -6.1825986926       -1.1936547050       -3.1961340953
 H         -6.7065938296       -0.5157993836       -3.6591798442
 H         -5.2472143859       -1.0036793884       -3.3457077097
 O         -0.5800064217        6.9130651402        3.1497147217
 H         -1.0568563392        7.5305421170        2.5666745722
 H          0.2283982639        7.3605121056        3.4871729229
 O          7.2149081425       -7.0058745999       -2.7573793802
 H          6.7313810682       -6.5332585658       -3.4484452544
 H          8.0352284044       -6.5150491060       -2.5586041326
 O          0.8305480728        5.1261898483       -4.0039588463
 H          0.8740053547        4.1586577851       -3.8009347382
 H          0.5237950859        5.1710308113       -4.9135244691
 O          1.4353829692       -8.5202985998        0.5669755009
 H          1.6728327373       -9.4427524481        0.4847278552
 H          2.1954428191       -7.9901489266        0.2362236929
 O         -7.1887063951       -2.7673444676       -0.3901596620
 H         -7.2714742752       -3.7190919734       -0.5792711202
 H         -7.6170378184       -2.2822390107       -1.1172126238
 O          2.2538172068       -4.2752142098        6.4716997629
 H          2.0504271881       -5.0151170307        7.0412542632
 H          1.4263805541       -4.0627536133        5.9769550499
 O          4.5720406484       -3.6217280750        5.0515099743
 H          5.1618264776       -3.0620171878        5.5993014724
 H          3.9670747503       -4.0630660056        5.6616168203
 O          1.3872379617       -4.3854092066       -3.4803743196
 H          0.6812019317       -4.1872221307       -4.1302475976
 H          0.9711207602       -4.2562022881       -2.5910669940
 O          9.3348881183       -3.1807792381       -4.6520984549
 H          8.5224682298       -3.3859294735       -4.1730833555
 H          9.2335572989       -2.2859396097       -5.0072140349
 O         -6.4995825461        6.3719286007        0.7537525338
 H         -6.6308999882        6.4670778246       -0.2094172091
 H         -6.1520189777        5.4662121391        0.8433459321
 O         -6.6457995717        6.2309793173       -1.9583215138
 H         -6.1789763016        5.3943616851       -2.1700142489
 H         -6.0074053718        6.9182012993       -2.1905675797
 O          7.4824678614        1.5868424857        1.8290115793
 H          7.6901566647        2.0478153687        2.6565392041
 H          8.0370242086        0.7906958768        1.7559400889
 O         10.4200801451        1.7645100667        1.4492191617
 H         11.2069092352        1.8688652036        0.8627922281
 H         10.1913443609        2.6584082410        1.7560735203
 O         -5.6383304991       -6.1940478487        1.0271349581
 H         -6.4689306844       -6.1006055000        0.5500672243
 H         -5.8179688353       -6.0976431239        1.9912402661
 O          3.1292622950        1.6136178742        6.6613536142
 H          2.6362383705        2.4388662067        6.5484019844
 H          2.4706041897        0.9889726681        7.0186343374
 O         -5.3193582607        2.9900309636       -6.6779807910
 H         -4.4332788842        3.3355964538       -6.5210213771
 H         -5.2896298272        2.0350046582       -6.4799868112
 O         -7.0404720725        2.3385399016        1.8618714759
 H         -6.8602919669        3.0405504869        1.1817274030
 H         -6.3462607838        1.6785508154        1.7130249344
 O         -9.4563930111       -1.7947194394       -4.3634491632
 H         -8.7412434014       -1.8417320019       -5.0195255641
 H         -9.9427412879       -0.9753359334       -4.5120777569
 O          5.9602103848       -7.0194412407       -0.4854918780
 H          6.4138835016       -7.0370528659       -1.3731773488
 H          6.3217539890       -7.7489945556        0.0172976959
 O          6.9808962236        5.6039214140       -3.2485742523
 H          7.9173085514        5.6819351143       -2.9243978678
 H          6.5578548155        6.4453085356       -3.0703630941
 O          5.3874861750       -5.3164811380       -4.2030401896
 H          5.7082133321       -4.6551851545       -4.8375273822
 H          4.5562701128       -5.6433996098       -4.6076083253
 O        -11.4138396326        3.4731079202       -0.6838672770
 H        -10.6944743225        4.0254066053       -1.0152271919
 H        -11.3886027826        3.5660962390        0.2822410417
 O          7.7250368390        1.8964302186       -5.6293651925
 H          7.2164961385        2.6770108759       -5.8713658614
 H          7.8328148631        1.9501335215       -4.6596037914
 O          1.1136672528       -0.1531999891        7.1751661019
 H          1.0021642562       -0.4319499271        6.2346428294
 H          0.2522896514        0.2092563099        7.4154899193
 O          6.4782028355        0.0813579367       -0.4739374817
 H          6.1481221053        0.1332595871       -1.3743958309
 H          7.4300681661        0.3124720717       -0.4925451452
 O          3.9848513405       -3.0059590823        1.5620747097
 H          3.6725858386       -3.8175571948        1.1307839478
 H          3.3973577382       -2.8508501937        2.3318428501
 O         -5.1608395494        1.3469180869       -3.1537398438
 H         -5.9395821011        1.8870416121       -2.9469628528
 H         -4.3761455306        1.9185787592       -3.1833559530
 O          4.6434299629        6.7603942050        1.9419333446
 H          3.7853658072        6.9221259099        1.4976509500
 H          4.6342473775        7.2824344752        2.7446805504
 O         -4.1759393122        7.4700970725       -2.1572393078
 H         -3.8769754663        8.3397283264       -1.8947249110
 H         -3.9247057283        6.8651380080       -1.4273259055
 O         -5.9437304694        5.3835065471        4.2913134776
 H         -6.7366538398        4.8302582268        4.3995585525
 H         -5.2939981712        5.0430289342        4.9222860248
 O         -4.9592086128        4.4179003740        1.8523635424
 H         -5.2871171273        4.7084471322        2.7182007827
 H         -4.4412843284        3.6053159288        2.0005920681
 O          1.6323402379       -0.8884522828       -6.1740914603
 H          0.9491677071       -0.3559639917       -6.6118441386
 H          1.2222931548       -1.2110146467       -5.3393568433
 O          4.2479356490        2.2894224806        3.4933747623
 H          4.5644692541        1.4566523790        3.0810502266
 H          4.6278608582        3.0131761597        2.9571027841
 O         -2.2946691273        7.9664846386        1.3001688928
 H         -2.9926869838        8.3094474037        1.8656708967
 H         -2.7319168021        7.2266626419        0.8166874242
 O         -2.8891272282        0.7663244523       -6.8959955306
 H         -3.7496063568        0.4563117089       -6.5685612329
 H         -2.8633625520        1.7048089544       -6.6870917447
 O         11.7513903649       -0.7485042241       -1.4995223456
 H         11.7755327347       -1.5930086930       -1.9705008623
 H         11.4518538745       -0.9869624126       -0.5986222567
 O          5.9632882324       -2.7358755594       -5.1163946428
 H          5.0089213081       -2.7021840352       -4.9015981941
 H          6.4267245613       -2.8038969239       -4.2666259686
 O         -3.9853866301        2.9722050519       -0.6441180459
 H         -3.2434975992        3.2839492725       -0.1111685565
 H         -3.8554705489        2.0133138658       -0.7859497796
 O         -5.0419621386        4.2040942134       -2.8081149454
 H         -4.3766390521        4.7026570410       -3.3161144816
 H         -4.5759423459        3.8023265928       -2.0481788434
 O          5.6045793315        4.1424549382        2.1505081183
 H          5.5105764354        3.5933984152        1.3436541364
 H          5.2638194024        5.0282213574        1.9547635201
 O          7.2260964461       -0.9640861571       -3.0464046389
 H          6.2424136753       -1.0112335147       -3.1055642345
 H          7.6333838172       -0.9764158203       -3.9279522862
 O         -6.9649919503       -3.6436160315       -3.4441677331
 H         -7.8249199540       -3.8117642414       -3.0352287062
 H         -6.7335309284       -2.6989663398       -3.2556542285
 O         -3.4107697418       -1.0159863596       -3.6249229216
 H         -2.8516515323       -1.7257375686       -3.2395429795
 H         -2.7824247281       -0.5054462678       -4.1616046906
 O         -7.5496548538       -5.3908913479       -0.9199155798
 H         -6.8510638639       -5.7223790459       -1.5217520911
 H         -8.3486127530       -5.3246254183       -1.4519114248
 O          3.2725306746       -6.9945061141       -0.5879685681
 H          4.2478031866       -6.9916486119       -0.5922335858
 H          2.9668827469       -6.9532052018       -1.5147482592
 O         -5.1306901552       -2.0118103488        4.0270019471
 H         -6.0676531412       -1.9332427094        4.2931671688
 H         -5.1475570261       -2.3275347308        3.0970851816
 O          5.8311428897       -0.0921837486       -5.7000987642
 H          6.6364488015        0.4004824736       -5.9230056970
 H          6.0166823972       -1.0493729316       -5.6739593374
 O          8.7845544254       -0.6666328336        4.2753041674
 H          7.9944465383       -0.2226285452        4.6304327042
 H          8.6298157750       -0.7286080166        3.3040006557
 O         -2.0965754030       -5.4455158038        5.4745730227
 H         -2.1427786459       -5.6563077701        6.4063785211
 H         -1.3185208794       -4.8506813433        5.3555259623
