  95

 H         -1.0915547292        2.2321314125       -0.0184531377
 C         -0.6037747389        1.2684356413        0.2186371395
 C          1.6900938693        0.4177874691        0.3318311631
 C          1.5447911649       -0.9614849607       -0.3164515041
 C         -1.3136660119        0.1553885112       -0.4530331149
 H          1.5596032478        0.3060790406        1.4249290711
 H          1.4253341543       -0.8260218676       -1.3927807245
 H         -1.1267608819        0.0158583012       -1.5021528003
 H         -0.6696842917        1.1407680457        1.3163824137
 H          2.7072362473        0.7734292146        0.1458704227
 H          2.4787708353       -1.5251871835       -0.1385873029
 N          0.7778554575        1.3932061640       -0.2320050707
 H          1.1155921684        2.3233589141       -0.0059968900
 C         -2.5323634169       -0.4357453944        0.1429102721
 H         -3.4302239197        0.1527180369       -0.0949878358
 H         -2.4531788614       -0.4781155730        1.2285564201
 H         -2.6987155916       -1.4422465175       -0.2369627892
 N          0.3719587961       -1.6531598333        0.1808277344
 H          0.4405825268       -1.8141337643        1.1794041934
 H          0.2421462380       -2.5417121079       -0.2870691447
 O          0.1655399039        2.4725097097       -2.5721016363
 H          0.4248482432        1.9287665205       -1.7746974373
 H          0.9818183634        2.5689996745       -3.0911227690
 O         -0.0639032219        0.1818778111       -4.1360669819
 H         -0.9556358076       -0.1882747085       -4.1533249778
 H         -0.1258906247        0.9886737030       -3.5924764749
 O         -2.4096617873        0.2124972562        3.3514868412
 H         -2.8748965325        0.3019741251        4.1834296517
 H         -2.7038727467        0.9552663854        2.7858667722
 O          2.1206211068       -1.3934117232       -3.5967184911
 H          1.8184929552       -2.2867297225       -3.3403374162
 H          1.3156301353       -0.9052181606       -3.8499415480
 O          2.3719030962        1.8245096537       -3.9974480394
 H          1.7709882368        1.2608629382       -4.4954952010
 H          2.9378758372        1.2091322119       -3.5041869853
 O          1.2483040214       -1.8570966096        3.1629964699
 H          0.9526279485       -0.9453549773        3.4414119498
 H          1.6430678115       -2.2455719169        3.9447645241
 O         -1.4182669010       -2.5545198221        2.7705539949
 H         -0.4678222620       -2.4132632176        2.9334746230
 H         -1.8279353338       -1.6885854993        2.8919422228
 O         -3.4043360754        2.3224178278        1.9081538425
 H         -4.2910706884        2.5863645599        2.1551336946
 H         -3.3121226917        2.5781908295        0.9561003555
 O         -3.1817126078        3.3858649523       -0.4962330066
 H         -3.1089588315        2.8948970113       -1.3430281893
 H         -2.4843415388        4.0492885704       -0.5247612308
 O         -2.6132448163        2.1380502910       -2.7988165679
 H         -1.6692915294        2.3567619952       -2.8175262814
 H         -2.6737868359        1.1830321109       -2.9389181050
 O          0.2962644921        0.4426678874        3.9262439773
 H         -0.6548208136        0.3867944830        3.7380420836
 H          0.5710963368        1.3347706126        3.6281451830
 O         -1.5153389625       -2.6612791271       -1.9944152355
 H         -1.0202361844       -1.9738010220       -1.5201997797
 H         -1.8232448867       -3.2544494720       -1.2929675385
 O         -1.9123018958       -3.9058145753        0.5083242867
 H         -1.7214507720       -3.3304574338        1.2899991975
 H         -2.6118452712       -4.4967575530        0.7875291298
 O         -2.6515307096       -0.6627023218       -3.4629294936
 H         -2.3474989573       -1.4478608997       -2.9672959019
 H         -3.5330782431       -0.8579508508       -3.7779415768
 O          3.7390148178        2.8714216232       -1.6767035057
 H          3.3643259246        3.1152683507       -2.5275016405
 H          3.8292088411        1.9104519635       -1.7012368231
 O          2.4074685725        3.6691602862        0.5831868092
 H          2.9207734776        3.5705442130       -0.2371067584
 H          2.9670432346        3.2348802407        1.2546133375
 O          0.9441944667       -3.6939384860       -2.8037030853
 H          1.0885646236       -4.1818313615       -1.9819074924
 H          0.0108893304       -3.4314541068       -2.7807659298
 O          0.8120978434        2.9241670373        3.0309605771
 H          1.3218038678        3.1420037600        2.2435093626
 H         -0.0103282856        3.4481896491        2.9415214527
 O          3.9250165114        0.0598639590       -2.4320161928
 H          4.7173942456       -0.1656466987       -2.9218688494
 H          3.2284030562       -0.5774173161       -2.7590238933
 O          0.6305359209       -4.7336162491       -0.1966742650
 H         -0.2945325159       -4.5885740170        0.0703039592
 H          1.1528099501       -4.7497808064        0.6062137448
 O         -1.3843976330        4.2410144162        2.2474392508
 H         -2.0995868781        3.5883321841        2.1988143023
 H         -1.1128932335        4.4237027213        1.3381702185
 O         -0.2745711360        4.4092881789       -0.4582364615
 H          0.6144858931        4.4791230775       -0.0863638746
 H         -0.1691789917        3.9467894609       -1.3045846183
 O          3.6265509826        2.1359652926        2.5293941083
 H          3.7446571048        1.1660647594        2.5748992290
 H          3.0578380583        2.3558518678        3.2718661731
 O          3.8236503371       -0.6050141376        2.5979686516
 H          4.2576338479       -0.7397078776        1.7404328437
 H          2.9891935511       -1.0915884551        2.5706506765
 O          5.0187523610       -0.4184298833        0.0916330840
 H          5.4519822836        0.4145112551        0.2906161816
 H          4.5652618479       -0.3028470261       -0.7604582609
