  191

 H          0.4630927076        1.1941025328        0.8323452959
 C          0.5529035761        0.5095402430       -0.0251092076
 H          0.4633421182        1.0989800596       -0.9466436097
 C         -0.5779259333       -0.5149488603        0.0205351871
 H         -0.4518492549       -1.1270258237        0.9278134321
 H         -0.4840892691       -1.1748678655       -0.8448928485
 N         -1.8603253885        0.1647702475       -0.0623309409
 H         -2.6131021663       -0.5138473281       -0.0751527665
 H         -1.9956541839        0.7570092262        0.7508171933
 O          1.7808081027       -0.1833448060        0.0209869108
 H          2.5006908392        0.4507195084       -0.0567171280
 O         -1.8730045582        2.1805160159       -1.7609101360
 H         -1.2559290091        2.0965513319       -2.5087879908
 H         -1.8492759702        1.3279085136       -1.2351936670
 O          4.6641241756       -0.2254868448       -3.3066611649
 H          4.6448258258       -0.8040303425       -2.5035347849
 H          4.2558417550       -0.7918872182       -3.9937026208
 O          2.5485350301        1.4135999036       -3.0466424500
 H          2.9230654214        2.2562913879       -2.7668002512
 H          3.2815463698        0.7615297074       -3.0249592361
 O         -4.5744842266        1.3875838816        0.7381395167
 H         -4.4915934385        2.1464706221        0.1179623284
 H         -4.7809653757        1.7565990356        1.6262738973
 O          4.4058412296       -0.4048939492        0.7446168552
 H          4.2232319916       -1.0368215055        0.0249842202
 H          5.0368569789        0.2299768665        0.3636540596
 O         -4.3452874116       -0.2961454523       -1.4943888950
 H         -3.8520853573        0.0011874595       -2.2929281335
 H         -4.3628883053        0.4293454385       -0.8618452955
 O         -1.8496081221        1.0588459307        2.6730618807
 H         -1.9481563355        0.0907776039        2.8060331079
 H         -0.9108525135        1.2718063557        2.8369274485
 O          3.2141727030        0.6092313718        3.0272685315
 H          2.3201342215        0.9716241256        3.1142457940
 H          3.3269864720        0.2982647723        2.1128622933
 O          1.6037598985        3.5034953207        1.4230647345
 H          2.1995057258        2.9233350982        0.8956872030
 H          0.8467115078        3.7029595478        0.8385161803
 O         -0.5705550670        3.8741759494       -0.1386819892
 H         -1.0230424880        3.2557002523       -0.7523301878
 H         -1.2138643395        3.9981129496        0.5842275917
 O          0.6910453604        1.8422994907        3.2538919036
 H          0.3037417036        2.4489765587        3.9072409524
 H          1.0440576096        2.4684731043        2.5649276101
 O          1.5326409694       -1.4752886900       -2.3856760276
 H          1.2429828200       -2.4052559102       -2.2308589083
 H          1.7803628329       -1.0911654845       -1.5277947206
 O         -0.5505764067       -0.6373803135       -3.8069729791
 H          0.1562633341       -0.8566419753       -3.1629426751
 H         -0.0490248903       -0.3483233353       -4.5908794178
 O         -2.9929951528       -2.6543036680       -1.0832513186
 H         -3.5854184958       -3.4150529559       -0.8834530073
 H         -3.5707079296       -1.8964544723       -1.2760417166
 O         -1.6731187850       -3.1473262360       -3.3548805633
 H         -2.1453227772       -2.9759451928       -2.5112899458
 H         -1.3317908436       -2.2869061999       -3.6526682288
 O          2.4690793954       -2.6635315556        1.1076367912
 H          2.6650201176       -2.5153455607        2.0633971952
 H          2.2083870985       -1.7995093158        0.7535069046
 O          4.3810840897       -1.9887088683       -1.3884255503
 H          5.1450750036       -2.4306325969       -0.9541364427
 H          3.9159546939       -2.7033617098       -1.8776909871
 O          2.9414286060       -2.0288137403        3.6496459178
 H          3.1766083100       -1.0814174815        3.6038210454
 H          2.0257653635       -2.0148051908        3.9677589790
 O          0.6137173948       -3.9353548202       -2.2124527177
 H         -0.2531978857       -3.8381412432       -2.6670380704
 H          0.4538540555       -4.2140550919       -1.2924542439
 O          0.4028818779       -1.0975260918        3.9840657692
 H          0.4525144038       -0.1386441010        3.9235230789
 H         -0.5155080756       -1.3495487298        3.8223897315
 O         -2.1664902882       -1.5803139479        2.9573691226
 H         -3.1186522473       -1.5179421370        2.7631775701
 H         -1.8939165330       -2.3510081803        2.4128528859
 O          0.6706133579       -4.4915723132        0.4453077028
 H          1.3123933062       -3.7963933290        0.7311438856
 H          1.1125020004       -5.3287562751        0.5933756560
 O         -1.7941494459       -3.5761983749        1.2408844924
 H         -2.1188941033       -3.1890041889        0.4114135300
 H         -0.9420608507       -3.9871642074        1.0300829161
 O         -3.0901290142        0.2529379018       -3.7561256118
 H         -3.0512501473        1.1818627999       -4.0592775407
 H         -2.1666535110       -0.0613812885       -3.7436871711
 O         -4.5740766846       -1.1850758714        1.7486596238
 H         -5.1599854570       -1.0054065242        2.5278319899
 H         -4.4234847968       -0.3181989878        1.3457320508
 O          0.0571373643        2.3243786134       -3.6320031977
 H          0.8692574217        1.8529884937       -3.3736648382
 H         -0.0840627651        2.1301816482       -4.5608993755
 O          6.0719985727        1.3561229506       -0.5599105179
 H          6.6847452810        1.9546639985       -0.0887965088
 H          6.0126518140        1.7083145608       -1.4725636520
 O         -6.3815052332       -2.6863003119        0.4569684856
 H         -5.6351051278       -2.1688597801        0.8370712559
 H         -6.4720582312       -2.4194499746       -0.4828306119
 O         -7.2282283269        1.0226986697        0.3529120007
 H         -6.2561695340        0.9541974046        0.4357896551
 H         -7.6099517789        0.2791614744        0.8587279436
 O         -6.4568030658       -1.7697716584       -2.0900235725
 H         -6.1028736980       -2.2847270278       -2.8275744561
 H         -5.7192014643       -1.1582954881       -1.8756400444
 O          6.3267594553       -3.0239417530        0.1310893897
 H          6.1545371453       -2.8208884847        1.0682234224
 H          6.9790462289       -2.3479276216       -0.1437438562
 O          5.6271631335       -1.9175732550        2.5593451333
 H          4.9943763117       -2.2775356219        3.1868162325
 H          5.1001551578       -1.3492025572        1.9506196828
 O          3.3170943489       -4.1210193566       -2.6129537920
 H          3.5981275249       -4.5998509756       -1.8089609230
 H          2.3502785193       -4.2006595598       -2.6252808969
 O          3.9978566793       -4.7099088884       -0.0522453976
 H          4.9312196957       -4.4800422759        0.0229498193
 H          3.5181317195       -3.9804080473        0.3752459980
 O          3.2963344007        1.9927874890        0.0453132981
 H          4.0894192405        2.0274272691        0.6147591632
 H          3.4885503131        2.5593644222       -0.7263232728
 O          5.1708495320        2.2460031242        2.0749078394
 H          5.9095732668        1.6107354250        2.0620996075
 H          4.5174285359        1.8436672209        2.6721851317
 O          7.6812348339       -0.7938214979       -0.5574572056
 H          7.9914870895       -0.8393978069       -1.4734931332
 H          7.0330465921       -0.0560432249       -0.5855947806
 O         -4.3619838960        3.0354438988       -1.3324087887
 H         -4.9114206687        2.6496007379       -2.0472289395
 H         -3.4367076278        2.8063310910       -1.5482466280
 O         -5.6593898313        1.8373100116       -3.3583635077
 H         -6.5349520444        1.5099591251       -3.0332182511
 H         -5.2315716992        1.0636880712       -3.7370912838
 O         -7.7788142753        0.6616693634       -2.3112111103
 H         -7.5466870243       -0.2798210500       -2.3720258298
 H         -7.7126746424        0.8778866977       -1.3643814228
 O          1.4543793360        0.2461904151       -5.4043533506
 H          1.9478228750       -0.5705720317       -5.5464317863
 H          1.9448737092        0.7123967500       -4.7108651192
 O         -2.3635202154        3.6771926547        1.8629146473
 H         -2.4750847957        2.7252127117        2.0006190099
 H         -3.2436962598        4.0457376584        1.6275651431
 O          1.1250466391        4.5382851775       -2.2414209135
 H          0.5770903001        4.5248565535       -1.4425365871
 H          0.7015122496        3.9190952684       -2.8541246057
 O         -4.4166302592       -2.2807088980       -3.9280163565
 H         -4.0181345200       -1.4111648955       -4.0651106121
 H         -3.6806803720       -2.9041179265       -3.9426806238
 O          5.7585625398        2.3527349127       -3.0281326482
 H          5.1001121441        3.0348257516       -2.8351159109
 H          5.2942941385        1.5903271974       -3.4006429530
 O          3.6644114518        3.8370463470       -1.8698186651
 H          2.7747165339        4.2274497566       -2.0409750515
 H          4.0315005843        4.3494632110       -1.1256153248
 O         -6.2348112681       -0.4142980245        3.6207779874
 H         -7.0741432199       -0.5603777333        3.1633726387
 H         -6.0399724803        0.5378100489        3.5850183867
 O         -5.3420236823        2.1604369913        3.1614942449
 H         -4.6163627943        2.3532258991        3.7975125484
 H         -5.9264852333        2.9215179672        3.1129998523
 O          3.0549942014       -1.9384582036       -4.5592587661
 H          3.3553637643       -2.8433534523       -4.4334622232
 H          2.4680202944       -1.7679546608       -3.7905783270
 O          7.2352538258        0.3187185918        2.1013615720
 H          6.8097030475       -0.4292734119        2.5487953715
 H          7.6270635990       -0.0698208071        1.3072046882
 O          4.2556076321        4.6233087182        0.7219180715
 H          4.7206761126        3.9483575718        1.2360182142
 H          3.3658432843        4.6573134602        1.0943278801
 O          7.5006981392       -0.1569199632       -3.2306746826
 H          6.5474223879       -0.2840271570       -3.3562530437
 H          7.6474294309        0.7877395943       -3.3171838885
 O         -4.7122292050        4.5176188074        0.9571118071
 H         -5.5947715138        4.1972073549        1.2180075574
 H         -4.6181653301        4.2891225698        0.0213260611
 O          7.7861216751        2.8485424079        0.9179408383
 H          7.9968426783        2.1368641816        1.5347634484
 H          7.2789180757        3.4998507855        1.4074758279
 O         -7.1842702681        3.4536675058        1.4650655309
 H         -7.2604333546        2.5466544797        1.0896139507
 H         -7.8210280587        3.9787622566        0.9825460935
 O         -8.1314051711       -1.1358199705        1.6870351812
 H         -7.5446841488       -1.8196573739        1.2684495005
 H         -9.0252857419       -1.4696422819        1.6270790146
 O         -0.7662330989        4.0088839252        4.0112702737
 H         -1.3559371223        3.9855569311        3.2277236944
 H         -0.1311124454        4.7035172395        3.8337641105
 O         -3.1540902503        2.4085251912        4.6364109975
 H         -2.5487708846        3.1405163624        4.7860194072
 H         -2.6782320713        1.8000208793        4.0374937220
 O         -3.2183854305        2.8898892631       -4.3700701670
 H         -4.1717321658        2.9480711654       -4.2291246925
 H         -2.7987352915        3.4314692128       -3.6967941712
 O         -4.4602801790       -4.5883398693       -0.0199387690
 H         -3.9222253486       -4.6692277229        0.7733730502
 H         -5.2757740703       -4.1202149752        0.2361876791
