  311

 H          0.4630927077        1.1941025327        0.8323452956
 C          0.5529035761        0.5095402429       -0.0251092068
 H          0.4633421182        1.0989800597       -0.9466436098
 C         -0.5779259332       -0.5149488605        0.0205351871
 H         -0.4518492549       -1.1270258237        0.9278134323
 H         -0.4840892691       -1.1748678656       -0.8448928489
 N         -1.8603253884        0.1647702475       -0.0623309410
 H         -2.6131021664       -0.5138473281       -0.0751527669
 H         -1.9956541839        0.7570092261        0.7508171929
 O          1.7808081025       -0.1833448057        0.0209869105
 H          2.5006908390        0.4507195086       -0.0567171283
 O          3.2746162042       -0.2871224828       -4.7645171397
 H          3.1662070239       -1.1798717232       -4.3679587671
 H          4.2460514417       -0.1947301753       -4.9136058666
 O          2.7657476732       -2.5770486586       -3.4383818023
 H          3.2740496687       -2.2885241666       -2.6451835955
 H          1.8534285561       -2.2777041472       -3.2561882509
 O          0.4029231058       -1.3649962142       -3.3637417844
 H         -0.0082888760       -0.5281547334       -3.0172634413
 H          0.4982179976       -1.2348312262       -4.3190313936
 O          0.9299129391        1.1952348834       -5.1498904418
 H          0.8980322652        1.7424433665       -4.3485530830
 H          1.7440205752        0.6769463838       -5.0780548449
 O         -0.8595383881        0.7772396349       -2.6738482249
 H         -1.4052250286        0.5904181799       -1.8913283172
 H         -1.4346337627        0.7537330286       -3.4574169817
 O          1.2743879729        2.7521780773       -2.8622495444
 H          1.4552726487        3.6901496264       -2.6468377783
 H          0.3394401176        2.6457470616       -2.5820347381
 O         -0.9860745235       -3.6021486305       -3.6056978041
 H         -0.4464764199       -4.2928895470       -3.1729014590
 H         -0.5423342539       -2.7581901429       -3.3624194666
 O         -3.1546154477       -3.8935912568       -2.1056050404
 H         -3.9160254079       -3.5991757538       -2.6323212457
 H         -2.3775466926       -3.8390853910       -2.6998271563
 O         -3.2787584407       -0.6264410399       -2.8390301350
 H         -3.5063880905       -1.2565158819       -2.1443115464
 H         -3.6663640416       -0.9564316935       -3.6694201162
 O          3.2460915755        0.9402382094       -2.3740576696
 H          3.2370509194        0.5698243528       -3.2846683830
 H          2.4802923396        1.5431790158       -2.3337146863
 O         -2.0943376992       -3.5216348925        0.3852441740
 H         -2.4475613949       -3.5218649722       -0.5238985614
 H         -1.3501440354       -4.1541031721        0.3973619184
 O         -4.2561080042       -1.9032289207       -0.5532000792
 H         -3.9987278384       -1.9817990886        0.3777947845
 H         -5.0605687241       -2.4546028947       -0.6465473740
 O          0.6245326687       -4.9827124596       -1.9724654093
 H          0.8638746970       -4.1457282659       -1.5248232422
 H          1.4602569961       -5.3157689273       -2.3459561306
 O         -0.0839210369       -5.3718262587        0.6682777306
 H          0.7722156764       -5.2557274279        1.1126280890
 H          0.1198046312       -5.5112730162       -0.2710086840
 O         -3.5041468312        1.9714097222       -2.1377834921
 H         -3.4125278404        1.0228883605       -2.3605123336
 H         -2.6032810640        2.3712072501       -2.1042054141
 O         -1.6171492817        3.2088744575        1.3312748318
 H         -2.4765537429        3.1238365995        0.8939943553
 H         -1.4874604121        4.1860385981        1.4493991189
 O          0.7043839464        3.8194331501        0.0965396613
 H          1.3744452405        3.1147478428        0.0250690895
 H         -0.1464120569        3.4171735412        0.3371768663
 O          2.9353911287        2.3642787917        0.1187014345
 H          3.3114196096        3.2297285375       -0.1728215157
 H          2.9443390475        2.3549784049        1.1065951004
 O          1.5423927045       -2.8511942923       -0.5890617652
 H          2.4410064703       -3.2418603649       -0.5236766787
 H          1.6528791723       -1.8877056282       -0.6162053047
 O          3.7574900297       -4.2859545435       -0.3114168158
 H          4.6285925712       -3.9016163054       -0.0648575922
 H          3.4224135023       -4.7890255575        0.4508111658
 O          3.7936653191       -1.5476088649        1.2303296305
 H          2.9685525224       -1.0591932727        1.3607734055
 H          3.9365877584       -1.6091202256        0.2620277050
 O          6.1349787826       -2.1926977185       -2.8677682276
 H          7.0476709635       -2.0124113583       -2.5798721249
 H          6.0723617875       -3.1689325473       -2.9432992331
 O         -6.5047233195       -3.3591360657       -0.4587650509
 H         -6.1007168449       -4.2220390331       -0.7245257729
 H         -6.4390012699       -3.3538969704        0.5255232111
 O          4.0563567647       -1.4638958598       -1.4162857757
 H          4.9363708282       -1.6562023320       -1.8178807633
 H          3.8266824022       -0.5466908407       -1.6477675212
 O          6.1140380894       -3.2383865027        0.2912845600
 H          6.2940172057       -3.1611133461        1.2522391689
 H          6.2122400490       -2.3308637558       -0.0711005449
 O          1.1069667920       -2.9463407247        2.0813987589
 H          1.1612414430       -2.9943946907        1.1047180172
 H          1.4559228434       -2.0801966917        2.3314641804
 O         -1.3359263468       -2.8524708799        2.9091676140
 H         -0.3747667135       -2.9839738736        2.6718999968
 H         -1.7946414808       -2.9090237638        2.0527347826
 O         -4.1093933612       -1.4625429052        2.1039364982
 H         -3.8107933788       -1.6318980870        3.0114715861
 H         -4.3587594153       -0.5133898106        2.0678335043
 O         -0.8441764776       -0.2228015258        3.4217959322
 H         -1.6677130732        0.2103997506        3.7148562833
 H         -1.0712641840       -1.1566563010        3.2450200730
 O          1.8120828387       -0.3815008967        2.8490519589
 H          2.3081423006        0.4751281812        2.8437114047
 H          0.8811854782       -0.1406277569        2.9618030436
 O         -5.4383572262       -3.4681443000       -3.5825797045
 H         -5.8163259519       -4.3468391178       -3.5358121390
 H         -6.1482464478       -2.8438195452       -3.2900244782
 O          5.4436166813        1.4744732904        0.1649197518
 H          5.9744486618        2.2604722211       -0.1006507361
 H          4.5104871821        1.7126058918        0.0160206577
 O          5.7650706774       -0.3060243909        2.4756312410
 H          5.3851858800        0.0023528001        3.3237627181
 H          5.0122681330       -0.6151432095        1.9329961766
 O         -5.9754675271       -3.3666247976        2.1483843070
 H         -5.3587642826       -4.1238275389        2.0968195952
 H         -5.3909596451       -2.5790575937        2.1760266722
 O          5.1582930571        2.7516785023       -2.7044654633
 H          4.8666896677        3.0000359128       -3.5943756874
 H          4.5056913510        2.0593601941       -2.4419896796
 O         -6.1776087591        0.6905271496       -2.9315744954
 H         -5.6958403490        0.7120490389       -2.0620727217
 H         -5.5199168261        0.8097174717       -3.6389979981
 O         -5.2639060094        0.5378651876       -0.5095443522
 H         -6.1070809365        0.2769853213       -0.1026533450
 H         -4.7586909934       -0.2969295064       -0.5617894794
 O          5.9027844889       -0.2982247747       -4.7634471175
 H          5.9824755879       -1.1128687173       -4.2286598559
 H          6.4611912456        0.3390887959       -4.2932078003
 O          7.2371470396        0.9626887882       -2.6298393755
 H          6.9564089247        0.2349845991       -2.0417789884
 H          6.5433634029        1.6467164465       -2.5913909761
 O          2.9269007942        1.9613059590        2.7092853562
 H          2.3518360750        2.5331702506        3.2669017833
 H          3.8567566799        2.1631940740        2.9497634120
 O          2.6306066794       -1.8375419448        4.9139790747
 H          2.3003048617       -1.2862360044        4.1663853153
 H          2.0224167623       -1.6537376725        5.6345965546
 O         -4.5600732201        1.1519128542        2.1731729908
 H         -5.5163860417        1.3439744028        2.2711268253
 H         -4.2885470397        1.6395882189        1.3673769912
 O         -4.0954984616        2.9402304480        0.2251058590
 H         -5.0344970474        3.2254271404        0.1954111232
 H         -3.9647153859        2.3916956767       -0.5842305973
 O         -7.5443203324       -0.4179881798        0.4970551011
 H         -7.7850615497       -1.0496592456        1.2075997660
 H         -8.2694473171       -0.4679838182       -0.1659089584
 O          3.8735613716       -3.4918078098        3.1112353862
 H          3.4169445074       -3.0846943068        3.8638156408
 H          3.8271923753       -2.8267862469        2.3925086594
 O          0.4562318961       -0.1984372815        5.8013053130
 H         -0.1460407311        0.2002832168        6.4285694186
 H          0.0035417535       -0.1838901820        4.9310088082
 O          3.2299608001       -5.1597246395       -2.7717119678
 H          3.0898990047       -4.2921550151       -3.1984051096
 H          3.4312543102       -4.9422572737       -1.8374569707
 O          6.5632790616       -2.7804000029        2.9265336778
 H          6.3224085898       -1.8278057947        2.8012241428
 H          5.7493811121       -3.2118018676        3.2299917367
 O          6.6307616562       -0.7304693432       -0.5553821622
 H          6.0451177471        0.0001787440       -0.2521897023
 H          7.4343264961       -0.6029633135       -0.0245036213
 O          1.4554752511        5.2869970784       -1.9783033230
 H          0.8002846515        5.9368922172       -2.2410476849
 H          1.0944581693        4.9029820095       -1.1482056761
 O         -2.0869970943        3.6262162251       -4.7325135773
 H         -2.0054265201        2.7653466706       -5.1539624884
 H         -3.0331982730        3.7810986995       -4.5772463349
 O         -1.7384618292        0.6706649296       -5.2487509818
 H         -0.7999532751        0.8980518611       -5.3936381315
 H         -1.8010144781       -0.2806890144       -5.4504631513
 O          1.2650997375        3.4265882971        4.1533607495
 H          0.3182113859        3.2148310883        4.1961118222
 H          1.3309193099        4.2283508368        3.5865647738
 O         -4.2659724512       -1.6276298705       -5.2015959687
 H         -4.6979179867       -2.4142137077       -4.8340331914
 H         -3.4445941974       -1.9133625655       -5.6219060828
 O         -7.2130494914       -1.7433237660       -2.6309348931
 H         -6.9992851986       -2.0116012254       -1.7248987596
 H         -6.8364337482       -0.8447575823       -2.7780356166
 O          1.5073364272        5.2621078359        2.2416029974
 H          2.4788659189        5.3007292099        2.1909281207
 H          1.2440545073        4.7588232875        1.4444428698
 O         -4.7468027594        3.5472631795       -3.8423643516
 H         -4.3362167397        2.9310781948       -3.1829787915
 H         -4.9963311501        2.9716775313       -4.5743947558
 O          3.9537309923        4.5311972480       -1.0095428421
 H          4.4528844974        4.0511023029       -1.6948308604
 H          3.2231175056        4.9938105709       -1.4429940058
 O         -1.2550914913        3.3771032640       -2.1984293574
 H         -1.2150769675        4.2440105746       -1.7365549866
 H         -1.4439375697        3.5894715463       -3.1352975713
 O         -5.0409910104       -5.5035933069       -0.9061708978
 H         -4.2750045734       -5.1284808888       -1.3730427741
 H         -4.7415723329       -5.6237871101        0.0101965393
 O          8.2109931096        0.1966580005        1.4329193957
 H          8.6539411782       -0.6547870181        1.6345587040
 H          7.3418716301        0.1575651824        1.8763088940
 O         -1.4213945660        2.8929321578        3.9954015969
 H         -1.4887172984        2.8873748538        3.0161214003
 H         -2.0280840967        2.2213255238        4.3218342500
 O         -7.1782582771        1.7941132500        1.9039039101
 H         -7.4076562013        1.0419674449        1.3126379865
 H         -6.9984054739        2.5497753520        1.3162425030
 O         -9.4425770766       -0.6938961592       -1.3470237579
 H         -8.9150714677       -1.0069382265       -2.0983451788
 H         -9.6128446518        0.2664473720       -1.5147614389
 O         -1.3069103189        5.8200919812       -1.1249437811
 H         -2.2611579380        5.8937169329       -1.3011261528
 H         -1.2160133547        5.9191827451       -0.1641640973
 O         -1.2004763448        5.7943867670        1.6624377370
 H         -0.2958659043        5.9139223477        1.9817686854
 H         -1.7809820974        5.8446662246        2.4637977694
 O         -3.1717464792        0.7319280066        4.4013018313
 H         -3.4323634975       -0.1401089033        4.7243555103
 H         -3.7290299529        0.9210168390        3.6117765206
 O          6.9364704196        3.5666178711       -0.4861840747
 H          6.7368546022        3.8481050793       -1.3811388632
 H          7.8325991043        3.1805507319       -0.4991434902
 O          8.9707906132        1.7786820907       -0.6745669113
 H          8.4565668364        1.4624550270       -1.4469417341
 H          8.6180650307        1.3293042704        0.1141109860
 O          4.1393415681        4.7800073047        1.8068913058
 H          4.7430081664        4.1350567843        2.2104385540
 H          4.4186580038        4.8919355159        0.8921219060
 O          4.6432752226        0.0001620480        4.8741424133
 H          4.0653906500       -0.7747489905        4.9925829016
 H          4.1099613305        0.7487489654        5.2030859149
 O         -3.9605627507       -5.0402264561        1.5904437088
 H         -3.3574119892       -4.4174085285        1.1251087078
 H         -3.3629278226       -5.5121322880        2.1987274054
 O          5.4944429097        2.5558499863        2.7257699218
 H          6.3100315130        2.4094413119        3.2474923130
 H          5.6313679508        2.0721468435        1.8916286916
 O          2.6440276731        1.5768516841        5.7342044039
 H          1.9136453925        0.9424096575        5.8008698925
 H          2.2648201639        2.3850391151        5.3644554244
 O         -6.6317885930        3.6926809218        0.0482904908
 H         -6.8118271385        4.6184508538        0.2130040029
 H         -6.8877394651        3.4943617564       -0.8903132137
 O         -7.1419735158        3.1297522741       -2.4669160545
 H         -6.9208099953        2.1863907596       -2.6477887407
 H         -6.4961521387        3.6263679341       -2.9923564295
 O         -3.9487983122        5.2438596426       -1.5143774633
 H         -3.9194690846        4.4939439974       -0.9023561993
 H         -4.2109578485        4.8994461640       -2.3729467831
 O          3.4272296669        3.0230712811       -4.7738118839
 H          2.6181282374        3.0218970490       -4.2445882579
 H          3.2031581176        2.6287113276       -5.6168492914
 O          8.6470057480       -3.8567610804       -0.4424854889
 H          8.7846018426       -3.3058622736       -1.2285074823
 H          7.6906770803       -3.8102506316       -0.2584740457
 O          9.1443461977       -2.2770730763        1.6626627658
 H          9.1054333831       -2.8887122382        0.8894583434
 H          8.5430314732       -2.6590443197        2.3113236406
 O          8.7961271264       -1.8808503395       -2.3710825118
 H          9.3814701966       -1.3551326075       -1.7717016689
 H          9.2092454186       -1.8528709693       -3.2331585806
 O         -1.7159869510       -5.6613456735        2.9442144709
 H         -1.5114426540       -4.7444177697        3.1787652516
 H         -1.1548690015       -5.8485401575        2.1782787457
 O         -3.2610345544       -2.0799770199        4.6426290963
 H         -2.4751519465       -2.4897001580        4.2363480788
 H         -3.7488631412       -2.7769968572        5.0811764165
 O         -4.4984403482        1.0856795374       -5.0931142364
 H         -3.5291350435        1.0578990187       -5.0780221969
 H         -4.7469370690        0.2238871627       -5.4501847116
 O         -6.8085889255       -0.0793014444        3.9197392430
 H         -7.1569676077        0.6015271222        3.3279879379
 H         -7.4291079699       -0.8094390187        3.8675484813
 O         -9.2523461373       -3.1966904400       -0.0345260706
 H         -9.5641616679       -2.4604415047       -0.5758739624
 H         -8.3630549028       -3.4106929873       -0.3627693976
 O         -8.4306603794       -2.1964807126        2.2987512945
 H         -8.8776363661       -2.6956002563        1.5774447028
 H         -7.6422187345       -2.7225240634        2.5022165363
 O         -9.6142528401        1.9212691271       -1.5599217168
 H         -9.7423019690        2.2214368081       -0.6357261758
 H         -8.9145162042        2.4654351616       -1.9361845674
 O         -1.5929224277       -2.0560575910       -5.7909334081
 H         -1.4803399185       -2.7122788853       -5.0806034455
 H         -0.7279119430       -2.0025370573       -6.2154054493
 O         -9.8378277340        2.4087570656        1.0932693608
 H         -9.0307400352        2.4483346219        1.6212839906
 H        -10.2464753143        1.5560338771        1.3174635525
 O          1.2063073841       -1.8802227938       -6.0049541182
 H          1.8947822233       -1.2149137006       -6.1194149167
 H          1.6484141447       -2.6796258389       -5.7065860874
 O         -2.6452309830        5.3920552503        3.8076311840
 H         -2.1834954186        4.5961836781        4.1154871423
 H         -3.5415631483        5.0980768021        3.5529576047
 O         10.3993157898       -0.5716755993       -0.7314017213
 H         10.3683827380       -0.9310285929        0.1599042687
 H         10.1368850702        0.3663038252       -0.6807025490
 O        -10.4534175293       -0.2425089201        1.4900888448
 H         -9.9358668832       -0.8851289185        1.9865790324
 H        -10.5156426328       -0.5657848106        0.5862309092
 O         -4.9198319588        4.1496002565        2.9887278117
 H         -4.5860049322        3.5818314632        2.2899151500
 H         -5.2505086007        3.5686407593        3.6964434618
 O          5.9581656470       -4.8444119270       -2.8173079537
 H          6.2277296407       -5.1125329808       -1.9365898489
 H          5.0310725826       -5.1252203734       -2.9319548594
 O          7.8398363436        1.8196502272        3.7971383465
 H          8.3618330011        1.5554317588        3.0321414625
 H          7.7414720124        1.0178736371        4.3416198365
 O          7.3255591585       -0.6010326999        5.0151929252
 H          7.3427765486       -1.4425633754        4.5502436094
 H          6.3903262442       -0.3884429309        5.1734958461
 O          2.5086224762       -5.3938464742        1.8210144639
 H          2.8683738134       -4.6738152916        2.3937205417
 H          2.6785233103       -6.2165515453        2.2765654305
 O         -5.5126755919        2.2709266814        4.9321511463
 H         -4.6423271576        1.9503432650        5.1897710096
 H         -6.0524500721        1.4862796326        4.7730685180
