  251

 H          0.4630927076        1.1941025327        0.8323452958
 C          0.5529035761        0.5095402431       -0.0251092079
 H          0.4633421182        1.0989800596       -0.9466436098
 C         -0.5779259332       -0.5149488605        0.0205351878
 H         -0.4518492549       -1.1270258238        0.9278134320
 H         -0.4840892691       -1.1748678653       -0.8448928487
 N         -1.8603253886        0.1647702476       -0.0623309409
 H         -2.6131021662       -0.5138473280       -0.0751527666
 H         -1.9956541839        0.7570092260        0.7508171931
 O          1.7808081027       -0.1833448060        0.0209869106
 H          2.5006908392        0.4507195085       -0.0567171281
 O         -1.8679435129        1.3888963717       -2.3523125044
 H         -1.9092790840        0.9134999700       -1.4616143001
 H         -2.7633066496        1.3557716526       -2.7335297898
 O          4.3068583817        2.0959079225        2.3019550041
 H          5.2420313951        2.2682670326        2.4898170744
 H          4.2042320413        1.1147490520        2.2290582519
 O          3.4692063035        1.8947399837       -0.3299438130
 H          4.0569091484        2.0698900091       -1.0844642884
 H          3.9745352435        2.0425606290        0.4850658163
 O         -3.6616988011        2.8246706450       -0.1907964575
 H         -3.8872624886        3.2606118381       -1.0364492706
 H         -2.7367118440        3.0795207954        0.0154560245
 O          1.2193583504        0.3925706343        3.3150476204
 H          1.8904519426        0.6961032169        3.9567293520
 H          0.9066736977        1.2001178488        2.8608487452
 O         -4.8038571747        0.5436324858       -0.8689926443
 H         -5.6411907839        0.9457406194       -1.2058804941
 H         -4.2558288839        1.3053909897       -0.5889202286
 O          4.4439778334       -1.3905395107       -0.3796961905
 H          5.0832562462       -0.6631214181       -0.4825614209
 H          4.9838873539       -2.2231118065       -0.3831485188
 O         -2.4565225390       -1.7450602530       -4.1927500624
 H         -2.8334147295       -1.6539462912       -3.2857080257
 H         -3.2016658041       -1.5857945549       -4.8077737248
 O          0.3038490018        2.7228158953        2.3691822218
 H          1.1038202203        3.2960291429        2.3563500033
 H         -0.1877752496        2.9742471500        3.1807626865
 O         -1.0767729868       -0.8697145159        3.8135771743
 H         -0.2716538365       -0.3290268408        3.6939144392
 H         -0.7256405128       -1.7302300112        4.1280192157
 O         -2.3347060886        1.4673507675        2.5572659594
 H         -1.8668482743        1.1218607912        3.3244033740
 H         -2.3952366761        2.4359442380        2.6634272673
 O         -1.2332203516        3.7458073063        0.3876733167
 H         -0.6552005568        3.2998396015        1.0404216928
 H         -0.7611894630        3.7352389744       -0.4569848943
 O         -5.1283308285       -0.9955360996        1.1877737721
 H         -4.9798216398       -0.4727253734        0.3583718705
 H         -4.2488655688       -1.3669366998        1.4608719904
 O          3.5246634460       -0.3960715048       -2.6582441064
 H          3.8074070609       -0.8499296570       -1.8358124567
 H          3.2766022013       -1.0970827455       -3.2935864472
 O          2.0180993077       -2.7751994519        0.5444011276
 H          1.8973711966       -1.8148591157        0.4247077056
 H          2.3762117096       -3.0669791907       -0.3322323889
 O         -3.4755271344       -1.6314288096       -1.7400428805
 H         -4.1510966477       -2.3317171345       -1.7429412542
 H         -3.9665599379       -0.7975818868       -1.6368085791
 O          0.9820651125       -1.4364684574       -2.5777174481
 H          1.3434007790       -0.9129228275       -1.8512555737
 H          0.5686155180       -0.8164018741       -3.2184568083
 O         -0.5339036314        0.0594448267       -4.1966456806
 H         -0.9309015467        0.5989287033       -3.4698478660
 H         -1.2002864314       -0.6526658209       -4.3388109026
 O         -0.6830450550       -3.4678925421       -3.2078298592
 H         -0.1340993286       -2.7464024236       -2.8527920200
 H         -1.3934999086       -3.0251661453       -3.7058707059
 O          2.0669234385        4.1917060687       -0.3527357082
 H          1.3212842333        4.2078251623       -0.9610777286
 H          2.4418986116        3.2860774224       -0.4047396966
 O         -3.4656552068       -4.0102442324       -0.0307971275
 H         -3.0802404668       -3.1267182434       -0.0315869075
 H         -3.7886296661       -4.1538547475        0.8738177138
 O          0.1263558076       -4.6202981515        1.1429226450
 H          0.7216383433       -3.8819971274        0.9200715354
 H         -0.3485826139       -4.8445915107        0.3134401611
 O         -4.2948349101        1.2426973800       -3.6140720128
 H         -4.9273089192        0.5577391859       -3.3447391642
 H         -4.6155721583        2.0897172236       -3.2641783855
 O         -0.0839062186        3.3167625570       -2.1300729085
 H          0.6762759193        2.8602765243       -2.5319322768
 H         -0.8085208478        2.6509084241       -2.1912886438
 O          6.1314226842        0.6322244074       -0.6703735195
 H          6.3592368798        1.5783961032       -0.5779652396
 H          6.5487396920        0.2851386266       -1.4794803208
 O         -5.2946829772        3.2063495698        1.8780198601
 H         -5.1936299547        2.3895555844        2.4207909846
 H         -4.7423522681        3.0590563898        1.0763223117
 O         -7.0025466643        1.7704106875       -1.6202276986
 H         -7.3249288683        2.1276604552       -0.7772859871
 H         -7.6439799418        1.0977530172       -1.8989931023
 O         -4.8482951913        0.8662136883        3.0939574287
 H         -3.8793641011        1.0266323697        3.0088501433
 H         -5.0491827627        0.2513932107        2.3627918742
 O          1.9394007960        1.7398537216       -3.0977861282
 H          1.8661761442        1.4542244448       -4.0273678690
 H          2.4254588767        0.9979179237       -2.6867641566
 O          4.3400820712        2.9118848315       -2.7631851911
 H          3.3856588903        2.7840437729       -2.9171646739
 H          4.7607474010        2.2841151944       -3.3755460841
 O          2.7481439107       -3.3968083419       -1.8855570966
 H          2.1383190410       -2.8075913667       -2.3581711246
 H          2.3644952422       -4.3050714814       -1.9470659961
 O         -8.7379941040       -1.8397438009       -0.1173835044
 H         -8.1028099520       -2.5498758595        0.0384392459
 H         -8.5499366095       -1.1706845862        0.5716283152
 O          5.2793608278       -3.1356434713       -2.8464623541
 H          5.7888516926       -3.5734274448       -2.1511758906
 H          4.3591742417       -3.2063106953       -2.5198400484
 O          6.6759126502        3.1366110825        0.0448554482
 H          6.7505155563        3.0387049546        1.0117438497
 H          6.0434230983        3.8565957578       -0.1482041195
 O          4.1067274260       -0.5171264039        2.0710116020
 H          3.6596126200       -1.1432264668        2.6630015115
 H          4.0481593452       -0.8952904676        1.1636797519
 O          5.9567228881       -3.5427676196       -0.2312682679
 H          5.3826166808       -4.0550855580        0.3703181667
 H          6.7447270568       -3.2847800904        0.2968711366
 O          4.7633844000        4.8100967623       -0.8294834651
 H          3.8473659098        4.9016467483       -0.5327418127
 H          4.6973980989        4.3273760017       -1.6675672522
 O         -7.7485410979       -0.0672826643        1.6567767717
 H         -7.8078234966        0.8804830554        1.4453232797
 H         -6.8272472727       -0.3222761275        1.5037195282
 O         -7.6672984935        2.5784722327        0.9413867801
 H         -8.3289084061        3.2050984316        1.2315286833
 H         -6.7961353896        2.8934309587        1.3069152555
 O          2.1954930960       -2.1294737094        3.1801091210
 H          2.0606826537       -2.5231227874        2.3061431411
 H          1.7589626096       -1.2562246224        3.1621238422
 O         -1.1979226273       -5.0895809419       -1.1268645882
 H         -1.0878309192       -4.5040850400       -1.9020607816
 H         -2.0850873009       -4.8947536352       -0.7778970813
 O         -2.7241512675       -1.8314967075        1.8634314692
 H         -2.2640650588       -1.2304607637        2.4728762013
 H         -2.5032815562       -2.7160194075        2.2203466637
 O         -6.4660154408       -3.2650497189        0.8008582737
 H         -5.9994464680       -2.4107756735        0.9580938746
 H         -5.9617391705       -3.9033319727        1.3240549336
 O         -2.9760456483       -0.8412762279        5.7794092911
 H         -2.2540412512       -0.9351306903        5.1344724969
 H         -3.7221150879       -1.3333560134        5.4088361855
 O          6.7410981259       -0.2427999218        1.7965437042
 H          6.6736588468        0.0100396703        0.8496720532
 H          5.8287454659       -0.4806339668        2.0688682218
 O         -1.7529144989       -4.0997015658        2.9872193198
 H         -1.2352688596       -3.9065586414        3.7785110027
 H         -1.0927396205       -4.3872188839        2.3210163708
 O          6.8196640278       -0.9205815315       -2.7744394357
 H          6.2499543294       -1.7208655022       -2.7936662168
 H          6.7131079848       -0.4956443893       -3.6283061739
 O          1.5721381678       -5.7443876459       -1.8996530108
 H          1.9323491773       -6.0779724768       -1.0442298633
 H          0.6162801271       -5.7198790846       -1.7689131900
 O         -6.0272302201       -0.9731808481       -3.1999538323
 H         -5.9058875923       -1.8449341554       -2.7957134801
 H         -6.9453546108       -0.7253043302       -3.0009794330
 O         -4.4839486815       -4.0771821853        2.5704777038
 H         -3.6624993603       -4.4485865462        2.9180373877
 H         -4.6407363467       -3.2790785775        3.1108492609
 O          5.1329614044        0.8251840464       -4.3488757865
 H          4.6017244162        0.3230038126       -3.6764507369
 H          4.5983842488        0.8199977518       -5.1456570905
 O          2.0256240313        0.2824094042       -5.3887495066
 H          2.4242597039       -0.5932361788       -5.2664330901
 H          1.0723764633        0.1376547816       -5.3412913578
 O          3.1660656402       -2.1925311199       -4.6396798373
 H          4.0421434134       -2.5868321081       -4.5916739079
 H          2.5396090164       -2.9534195861       -4.6310111425
 O         -4.2639299831        3.8020626005       -2.6114440703
 H         -4.8796719893        4.5098346635       -2.7939741173
 H         -3.4185847111        4.0239366134       -3.0982465915
 O          4.1103914921       -4.3368331214        1.5607984553
 H          3.4215229213       -3.7215136022        1.2653371222
 H          4.5412649357       -3.9082831898        2.3179536606
 O         -2.8099660967        4.1887246726        2.6658939710
 H         -3.7615089494        4.1044016543        2.4880866780
 H         -2.3816204139        4.3993568992        1.8260117907
 O         -5.0355705855       -1.8072411600        4.1141754411
 H         -5.9854903804       -2.0298855367        4.0733824522
 H         -4.9921962908       -0.8638063186        3.8933668868
 O         -0.9938087053        3.4678855248        4.5918836665
 H         -1.5835129941        2.8188237597        5.0226965542
 H         -1.5956948033        4.0923713729        4.1648013126
 O          2.4969681110        4.2029822451        2.3247426059
 H          3.2173235021        3.5527269362        2.3129172658
 H          2.3694687196        4.4764976397        1.4000238292
 O         -7.5990759592       -2.2697548460        3.3651778163
 H         -7.5087938192       -2.8638114911        2.6110014152
 H         -7.8903028669       -1.4226988216        3.0011056604
 O          2.2942548743       -6.2560140236        0.6067986040
 H          3.0578084309       -5.7853075807        0.9681109657
 H          1.5096409689       -5.8437987311        1.0078448474
 O          1.5645004198       -4.3214269770       -4.4494739443
 H          1.8282806908       -5.0320353986       -3.8546514009
 H          0.6606688548       -4.0849613877       -4.1687953507
 O         -2.9469140906        1.7712127293        5.3160534073
 H         -2.9562872502        0.8365483124        5.6278744451
 H         -3.8647515061        2.0181584950        5.1984057362
 O         -8.5400444821       -0.4075937408       -2.3009318043
 H         -9.3651090062       -0.4961320208       -2.7761524780
 H         -8.6200737229       -0.9837934635       -1.4935271078
 O          7.0144059871        2.2477225138        2.6196927665
 H          6.9844332322        1.2860731261        2.3853094928
 H          7.9652433516        2.4205644630        2.6380298563
 O          7.9848363533       -2.5596331184        1.2247709560
 H          7.5667830849       -1.7459691917        1.5695544970
 H          8.5500199248       -2.2248883994        0.5124778886
 O          8.8285208772       -0.8423419718       -0.7526480217
 H          8.9823591582        0.1156414024       -0.7907213193
 H          8.2893871876       -1.0471872344       -1.5269228818
 O         -4.6323518207       -0.9939506788       -5.5465211965
 H         -5.2555591787       -1.0550672127       -4.7997921214
 H         -4.4924306796       -0.0560010390       -5.6965521825
 O          8.9564345553        1.9505079915       -0.9773601962
 H          8.2656783107        2.5023778362       -0.5749088149
 H          8.7498151064        1.9729656052       -1.9218121126
 O         -5.6012995520       -3.3654408861       -1.7722504094
 H         -5.1226241311       -4.1925651523       -1.8582030399
 H         -5.9699708512       -3.3717351023       -0.8623037424
 O         -2.0587445965        4.2832861638       -3.9198287142
 H         -1.2758115570        4.1535391911       -3.3647975646
 H         -2.0594125938        3.5496690952       -4.5705794882
 O         -2.2534273644        2.0045152010       -5.3854993016
 H         -1.5369240556        1.3782365871       -5.2081600455
 H         -3.0204871739        1.6819381436       -4.8902057559
 O          1.7664886235        3.6997242209        5.0526580623
 H          0.7992628669        3.6627258849        5.0699553350
 H          2.0125766684        4.1814196724        4.2532474186
 O          0.1877084397       -3.0305535320        4.7579294527
 H          0.9851401889       -2.9172234334        4.2011211766
 H          0.4468670665       -2.6663243007        5.6105658965
 O          9.4922716511        1.4361951225        1.7610531750
 H          9.6070346076        1.7066289670        0.8418134314
 H          9.4088257801        0.4798252137        1.7360964952
 O          3.2054066232        1.4861923613        4.7750989854
 H          3.6256427472        1.8204716922        3.9614034233
 H          2.7125438813        2.2619752841        5.1187377323
 O          5.5542086486       -2.7533001705        3.2531722476
 H          6.4792599495       -2.8977215028        3.0420719933
 H          5.5078278063       -1.9889972899        3.8464339254
 O          5.3626198309       -0.3494344248        4.6982183549
 H          6.1316749017        0.2193241541        4.6377373467
 H          4.6045350512        0.2256681616        4.8743442337
 O          7.3431993651        2.2362373452       -3.1998039955
 H          6.8599975865        3.0159060476       -2.9159682323
 H          6.7385811414        1.7205521289       -3.7464873358
 O          2.1016362119       -1.1750041271        5.8620460652
 H          2.7268264666       -1.6413991484        5.2996102385
 H          2.4159082108       -0.2700294483        5.9225695725
