  87

 H         -0.5425054112       -1.1597996584        0.9180873602
 C         -0.6112510051       -0.5412956738        0.0100749187
 H         -0.5391308395       -1.1969144470       -0.8712436602
 C          0.5103658646        0.5037878335       -0.0094871844
 H          0.3911098456        1.1518924072        0.8600966289
 H          0.3944399221        1.1152669956       -0.9056411632
 O         -1.7891825170        0.2100258093       -0.0077307041
 H         -2.5646581753       -0.3620747641        0.0026734602
 N          1.8637421187       -0.1172780950        0.0059475210
 H          1.9871272141       -0.7237037739       -0.8163106224
 H          1.9839787968       -0.6890763206        0.8531041606
 H          2.5930828886        0.6072400318       -0.0077051377
 O          4.0453590037       -2.2816833024        0.4295020369
 H          3.6410507389       -2.2801396668       -0.4499077951
 H          3.5855845720       -2.9633569094        0.9258461878
 O          2.3100598975       -2.0899829840       -1.8051590601
 H          1.8243384314       -2.7251587521       -1.2378987089
 H          1.7094474898       -1.8216348711       -2.5154374402
 O          0.6412465632       -0.4004371881       -3.1365605181
 H         -0.2020315994        0.0215909790       -3.3227284852
 H          1.2847898108        0.3305045078       -3.1040337089
 O         -1.4601525448       -3.5264965113       -0.4648635031
 H         -1.9183636806       -3.1948290684        0.3250703649
 H         -1.8563872363       -3.0781139786       -1.2209553024
 O          1.3943910395       -1.3945411293        2.4128782853
 H          0.4987935590       -1.1523741112        2.6812686642
 H          1.9586846425       -0.7704137947        2.9306760634
 O         -3.3394571933        1.1670849668        2.5909404253
 H         -3.2175715193        1.7936495360        1.8633769740
 H         -3.9487877342        0.4759396426        2.2856965748
 O          1.1697522949       -3.3411789750        0.2536340984
 H          1.1481053761       -2.8971708439        1.1104078052
 H          0.2473254715       -3.5638196144        0.0268567809
 O         -1.0226301095        0.0534891487        3.2624846558
 H         -1.9072662295        0.3944371013        2.9758780691
 H         -1.1084819267       -0.1467579627        4.1956343254
 O          2.0512397835        1.9205411375       -2.8558396356
 H          1.2478009967        2.4989354053       -2.8241138032
 H          2.6417741359        2.2760219158       -3.5182682136
 O          4.3453924468        0.3595346789        1.3493199782
 H          4.2675260439       -0.5902205292        1.1617867369
 H          5.2666705866        0.5692787590        1.1826218521
 O         -1.9210486172        0.9178711051       -2.6414842178
 H         -1.8481458886        0.7402941672       -1.6799061898
 H         -2.7909977542        1.3252177326       -2.7478203673
 O         -4.1832057563       -0.7274126645       -0.7941577479
 H         -3.8460037938       -1.2726655434       -1.5191698901
 H         -4.3079364587        0.1815968541       -1.1377744735
 O         -2.4654431398       -1.8233305863       -2.6452595868
 H         -2.3888970258       -2.3452053393       -3.4443344732
 H         -2.1713743806       -0.9207440123       -2.8647755113
 O          2.6296740216        0.7043220925        3.4293418039
 H          2.0228909674        1.4117936561        3.1668724480
 H          3.3804835116        0.7472881425        2.8145148227
 O          0.3600482258        2.2894292964        2.7663232388
 H          0.1941848984        2.8915347215        3.4911487748
 H         -0.1453751820        1.4662622094        2.9660496417
 O         -4.2242260665        1.8903144393       -1.5463502908
 H         -5.1226488552        2.0555473171       -1.2433251004
 H         -3.6618001927        2.3444917888       -0.8895302662
 O         -2.4831872980        2.7821621630        0.3919157197
 H         -2.0031270401        1.9384109613        0.3376566033
 H         -1.8080564387        3.4688759776        0.3580976090
 O          0.2845514205        3.5782769083        0.2673868291
 H          0.2583726301        3.2912603277        1.1929546197
 H          1.2135673341        3.4519880249        0.0212368502
 O         -0.2269872468        3.1761512484       -2.4913215671
 H         -0.2246294120        3.4591216297       -1.5654753263
 H         -0.9082023702        2.4942221791       -2.5997895576
 O          2.8164058409        2.4519180137       -0.2949371938
 H          3.7532135812        2.5017154707       -0.1004331569
 H          2.7442754341        2.2262346727       -1.2438427442
 O          4.1546579093        0.3116770702       -1.6356727746
 H          4.9833251369        0.0320786740       -1.2191427776
 H          3.9110615718       -0.3830403902       -2.2500008606
 O         -4.8628503386       -1.0009139789        1.7534517272
 H         -5.7535541122       -1.3031152960        1.9332350895
 H         -4.7878203317       -0.8942516749        0.7828385717
 O          6.3227145985       -0.8330233380       -0.2823948896
 H          7.1638543727       -1.1587383654       -0.6019593675
 H          5.8087666165       -1.5966884769        0.0179179098
 O         -2.4950956235       -2.4086071608        1.8433515718
 H         -2.4754223660       -3.0379202309        2.5646955730
 H         -3.3499365526       -1.9471218721        1.8960849578
 O         -5.9124600609        1.6783169861        0.6294223821
 H         -5.5587505519        2.1356248837        1.3965350972
 H         -6.8455271683        1.5335865285        0.7902313861
