  221

 H          0.4630927076        1.1941025328        0.8323452958
 C          0.5529035761        0.5095402430       -0.0251092077
 H          0.4633421182        1.0989800596       -0.9466436097
 C         -0.5779259333       -0.5149488604        0.0205351875
 H         -0.4518492549       -1.1270258237        0.9278134321
 H         -0.4840892691       -1.1748678656       -0.8448928486
 N         -1.8603253885        0.1647702475       -0.0623309410
 H         -2.6131021664       -0.5138473280       -0.0751527665
 H         -1.9956541840        0.7570092262        0.7508171932
 O          1.7808081027       -0.1833448059        0.0209869107
 H          2.5006908393        0.4507195084       -0.0567171281
 O         -1.9057342743        1.3590276686       -2.3415164451
 H         -1.8308587281        0.9526316772       -1.4087415956
 H         -1.4654982905        0.7274649548       -2.9605824098
 O          0.8004449781       -3.4279248742       -2.8747608435
 H          0.8255457090       -3.7556808459       -1.9669622603
 H          1.1408212430       -2.5156146262       -2.8336803053
 O          3.8911163209        1.3808136848       -0.3872523181
 H          4.2052618119        0.8209201713       -1.1189971089
 H          4.5970768712        1.4069349230        0.2751225434
 O          3.5214672339       -2.2116927171        1.7575406701
 H          2.7233915665       -2.5778805008        2.1669431568
 H          3.5481877286       -1.2926502872        2.0754510977
 O         -4.2751804761        0.2688386078       -2.7181885906
 H         -3.3902548439        0.6557143558       -2.5160268579
 H         -4.7916842732        1.0653579338       -2.9760633354
 O         -1.8555006275       -2.7626325270       -2.6654016859
 H         -1.1103390175       -3.2590960461       -3.0446540119
 H         -2.6821975309       -2.9978629227       -3.1398879716
 O          3.0499233672       -2.4565178497       -0.8040961053
 H          3.3402437036       -2.2132523969        0.1044695712
 H          2.1831005813       -2.8731085810       -0.6614185416
 O          1.5824456037       -0.8096936529       -2.5750055919
 H          1.7015677812       -0.7822212421       -1.6003678873
 H          2.0499323519       -0.0154527046       -2.8990909414
 O          2.3650233575        1.6257114910       -3.4129871351
 H          3.1331673791        2.1468015885       -3.1277351972
 H          1.5917124128        2.1749717629       -3.1941205556
 O          0.1508372536        3.0494604945       -2.7267647738
 H         -0.2103580332        3.9821959019       -2.7205579390
 H         -0.6141131652        2.4839667124       -2.4957743200
 O         -3.9756283051       -1.6816719632       -0.6833662226
 H         -4.0463236863       -2.6352261012       -0.8893793494
 H         -3.9954786086       -1.1971823482       -1.5186431479
 O          3.0621442948        0.3814105352        2.4796375485
 H          2.2052676221        0.0834052507        2.8101556815
 H          2.8645390510        1.2414242717        2.0414406778
 O         -3.9567923633        1.2002261945        1.8446371280
 H         -3.7849980076        0.2380429216        1.8603490860
 H         -3.4549315165        1.5703903105        2.5994720548
 O         -1.7159167134        3.4900366259        0.6281751755
 H         -2.3707473612        3.9086580227        1.2227996210
 H         -2.1164657481        3.5527417278       -0.2578718951
 O          1.9732117311        3.6769872590       -0.7630091610
 H          1.2853413935        3.3890828994       -1.3883097359
 H          2.8108358232        3.6077376078       -1.2534684083
 O         -0.1849922633        2.5023228782        2.6632767234
 H          0.7290407292        2.8096769266        2.4983210346
 H         -0.7036993103        2.8344307359        1.9103630015
 O          0.9075544150       -3.8964787991       -0.0132852695
 H          1.5470315905       -4.6362213925        0.1258787097
 H          0.8469708186       -3.4304575572        0.8460410907
 O          0.8898684158       -2.6467899068        2.4074054686
 H          0.2658200302       -3.0673198056        3.0254225119
 H          0.8118837825       -1.6957639203        2.5860557379
 O          0.4011966279       -0.0413309581        3.3382749537
 H         -0.4373738563       -0.3738800785        3.7302402255
 H          0.1990776852        0.8754924707        3.0587728252
 O         -1.9322084853       -0.8956731571        4.2959984720
 H         -2.5921468412       -1.0383340980        3.5768311196
 H         -1.6776568133       -1.7869186737        4.5679885494
 O         -2.7174131457       -3.8114142211        1.8092617734
 H         -2.3264490250       -4.0608881004        0.9433007930
 H         -3.6337502140       -4.1705397741        1.8100949568
 O         -1.6805890948       -4.4268428687       -0.5478083545
 H         -0.7317356946       -4.4262857997       -0.3227190574
 H         -1.7802132486       -3.6998000621       -1.1931554676
 O          5.9628355383        1.3500949858        1.5620083581
 H          6.8783203505        1.2034125803        1.2737396816
 H          5.8239347044        0.6822134083        2.2702289274
 O          5.5678797342       -1.0815964662        0.1417846972
 H          6.1265193172       -1.5985754238        0.7533179644
 H          4.9693478480       -0.5784146635        0.6982934696
 O          2.8736593715       -5.6512720648        0.1598711866
 H          3.6056916632       -5.3507794805        0.7351278198
 H          3.2711448168       -5.7254293631       -0.7127244829
 O         -6.5698360786       -1.4731764808       -0.1162479008
 H         -5.5910287752       -1.5012175532       -0.2038875388
 H         -6.8190820299       -0.5352560338       -0.2493204905
 O         -4.2286005058       -3.1179723309       -3.8758520297
 H         -5.0658995212       -2.7285109969       -3.5506835214
 H         -3.9700336397       -2.5270265252       -4.6031604123
 O         -1.1594099213       -3.5680673387        3.9383655428
 H         -1.1279157449       -4.4078125089        4.3936534582
 H         -1.7677816605       -3.6896209107        3.1717125597
 O         -6.2913170453       -1.6086384542       -2.8944961327
 H         -6.6251942452       -1.7849202845       -1.9983993586
 H         -5.6405115029       -0.8965303931       -2.7946409023
 O         -5.0061054515        2.6742607946       -0.1064751864
 H         -4.4927436984        2.1226224361        0.5170726363
 H         -5.5003234668        3.2948448160        0.4740828919
 O          4.3971949667       -0.5987659400       -2.2184920050
 H          3.8616519249       -1.2334750875       -1.7117856488
 H          4.1299209521       -0.6985929966       -3.1519833894
 O          5.0809821151       -4.3760724870        1.1200061427
 H          5.2132892953       -4.3123595245        0.1564870303
 H          4.5897184687       -3.5785729391        1.3896889324
 O          3.9165807333       -1.1560046460       -4.7959563075
 H          3.1387618210       -0.7963591918       -5.2524096582
 H          3.7401961714       -2.1100288089       -4.6414072982
 O          4.8208502534       -4.2043986384       -1.6673850985
 H          5.6033122374       -3.6900633271       -1.9292660197
 H          4.1638372704       -3.5309662697       -1.3697612105
 O         -4.3965136050       -4.2982151230       -1.2185248626
 H         -4.4751549334       -4.3276879269       -2.1781135174
 H         -3.5765422882       -4.7519110965       -0.9848348588
 O         -5.2936751858       -4.3763068011        1.5904105955
 H         -5.4227878142       -4.3002516877        0.6378225403
 H         -5.7662523642       -3.6413175172        2.0029641445
 O          2.3225413954        2.8197509182        1.7545983430
 H          3.1311460670        3.2518708926        2.1063869204
 H          2.2488428634        3.0921494588        0.8183587867
 O         -0.7680975578       -0.5647114328       -3.7194039823
 H          0.1210103318       -0.5971089730       -3.2971308189
 H         -1.2390580301       -1.3257403696       -3.3222639945
 O          6.2062752619        3.2128054041       -0.9480329228
 H          6.4378067795        2.2868891753       -1.1767835143
 H          5.9622600162        3.2122821779       -0.0189422458
 O          6.7850943046        0.6644218920       -1.5583565908
 H          6.6715221788        0.3977270749       -2.4865151603
 H          6.2795688622        0.0118490786       -1.0204742892
 O          4.1012872814        3.5315264580       -2.4963587384
 H          4.8894644465        3.4011485570       -1.9095925123
 H          4.2300610753        4.3664963376       -2.9452443410
 O          5.7739033447       -0.6225605287        3.3821491935
 H          4.9898331919       -1.0968425887        3.7208385974
 H          6.3411896150       -1.3065329784        2.9949005670
 O         -3.3006968882       -0.7983522654       -5.0429346405
 H         -3.7007873569       -0.4381441217       -4.2250966310
 H         -2.3486322002       -0.6845280702       -4.9411465330
 O         -3.6041097792        4.6080181535        2.1572343607
 H         -3.9941060742        4.1350073375        2.9067233115
 H         -4.3297047951        5.0540837232        1.7151480695
 O         -2.5093236963        1.8546684182        4.0371827155
 H         -1.6682721012        2.2429940168        3.7500697848
 H         -2.3058938838        0.9804934442        4.3976665950
 O         -3.5980719682       -1.3708377413        2.2829701966
 H         -3.2034493947       -2.2059931614        1.9533117817
 H         -4.5432315415       -1.5874169922        2.4585181626
 O         -6.2184060572       -1.8121801350        2.5106859021
 H         -6.5100217988       -1.7151360331        1.5760818770
 H         -6.4356138144       -0.9635170324        2.9353398775
 O         -3.1653443545        3.6996983227       -1.7358940476
 H         -3.9065842265        3.3872551101       -1.1764408696
 H         -2.7887112336        2.9071598197       -2.1483977976
 O         -6.3728658420        0.8782065113        3.0548049405
 H         -7.1218414464        1.2552384093        2.5647059605
 H         -5.5807018931        1.0005675058        2.4903407787
 O          7.0426286492       -2.5860415133        1.8808917770
 H          7.7643352771       -2.5635007526        1.2168273087
 H          6.5780117971       -3.4306159407        1.7687283800
 O          6.5968448203       -2.2379820791       -2.3160020167
 H          6.9565951193       -1.9882774597       -3.1696447792
 H          5.8428764646       -1.6257337242       -2.1621256733
 O         -7.0719917867        1.0915338447       -0.6581403251
 H         -7.3685999420        1.1313859568       -1.5960349879
 H         -6.2697986462        1.6573123565       -0.5900661277
 O         -7.5584189396        1.0274574101       -3.2607325075
 H         -7.3274657268        0.1262702010       -3.5204893783
 H         -6.8794056053        1.6214074592       -3.6140741365
 O          3.3823946345       -3.6856608082       -4.0419173433
 H          3.9331064746       -4.0176335561       -3.3132295485
 H          2.4615870834       -3.7704217397       -3.7543838011
 O         -5.0406144883        3.0704631465        4.0759317683
 H         -4.1841974052        2.7430577075        4.3826957632
 H         -5.5959747721        2.2748973012        3.9836314352
 O          4.7007888473        3.4614888958        2.7775326601
 H          4.5406755048        3.0749980220        3.6526983788
 H          5.2459935959        2.7981150502        2.3190210840
 O         -0.9674006118        5.3621327815       -2.4274725506
 H         -0.5943917989        5.6165990705       -1.5505066813
 H         -1.8797293709        5.0942274396       -2.2607738956
 O          1.5532691060        0.1802617826       -5.5717667615
 H          0.7989420928       -0.2792184679       -5.1876333006
 H          1.8923358022        0.7830618909       -4.8849329395
 O         -5.2363903867        2.5564777673       -3.6336599580
 H         -4.9182290438        3.3169087172       -3.1372377947
 H         -4.6165861693        2.4595469130       -4.3973667521
 O          8.5351886420       -2.0584405194       -0.2566720685
 H          7.8801539706       -2.1164119177       -0.9739569490
 H          8.6177871845       -1.1234264368       -0.0249637502
 O          8.4921852135        0.7699820027        0.4401855738
 H          8.0263993113        0.8101659929       -0.4218356221
 H          9.2389652243        1.3654151552        0.3902785043
 O          0.0642788063        5.5233750649        0.0294295016
 H          0.9062547408        5.0679542337       -0.1188032090
 H         -0.5304138112        4.8527140526        0.4094271183
 O          6.4250588006       -0.0769958401       -4.2430505996
 H          6.4972444366        0.7400640634       -4.7357288108
 H          5.5865308237       -0.4866724299       -4.5233228848
 O         -3.4129499548        1.9831747211       -5.4446011399
 H         -2.4613810454        2.1698463505       -5.3836445136
 H         -3.4785656418        1.0353626960       -5.6287730968
 O          3.6066015435       -1.8998999518        4.4826163180
 H          3.8420178723       -2.5806552478        5.1095416366
 H          3.0176436213       -1.2658092145        4.9560515272
 O         -0.6720140456        2.1250749341       -5.2575673222
 H         -0.2799457765        2.5866030890       -4.5015694014
 H          0.0335171604        1.6356286918       -5.6928296934
 O          4.2072338236        1.4643623250        4.6511461508
 H          5.0323590237        1.0048021291        4.8243324904
 H          3.8585305198        1.0389649755        3.8338820447
 O          2.0630435795       -0.0349512006        5.5854560396
 H          2.7008519977        0.6902048474        5.4761770874
 H          1.4009087274        0.0658813433        4.8817727448
 O         -6.4129579539        4.0109267463        1.7354040120
 H         -7.2406530146        3.5114829168        1.6716276274
 H         -6.0545658743        3.8108254837        2.6131162917
 O         -8.3202643297        2.0166253863        1.4640657669
 H         -7.9539889986        1.6621078287        0.6162196625
 H         -9.2642360131        1.8651045120        1.4436384864
