  101

 H          0.4630927076        1.1941025332        0.8323452956
 C          0.5529035760        0.5095402429       -0.0251092080
 H          0.4633421181        1.0989800598       -0.9466436106
 C         -0.5779259333       -0.5149488604        0.0205351878
 H         -0.4518492549       -1.1270258238        0.9278134322
 H         -0.4840892691       -1.1748678652       -0.8448928482
 N         -1.8603253885        0.1647702475       -0.0623309409
 H         -2.6131021662       -0.5138473281       -0.0751527665
 H         -1.9956541839        0.7570092260        0.7508171936
 O          1.7808081027       -0.1833448059        0.0209869107
 H          2.5006908394        0.4507195084       -0.0567171281
 O          1.8559476944       -2.6688721684       -1.2128610800
 H          1.5099818545       -3.2505903168       -0.5043529447
 H          1.7687172713       -1.7642147197       -0.8651230549
 O          3.6626284789        1.6099048173       -0.9268706563
 H          3.8896850924        0.9787169903       -1.6374245423
 H          3.0309667023        2.2363635843       -1.3245234393
 O         -2.0307756619        0.4105880212       -2.7113008024
 H         -1.9458209117        0.4953461559       -1.7233877768
 H         -1.3857789345       -0.2612371784       -2.9718627311
 O          1.6017478678        3.1129765269       -1.9324295908
 H          1.8115851342        3.9046655650       -2.4310060204
 H          1.4595461267        3.4259402021       -0.9868121799
 O         -0.0177410407       -1.6839979333       -3.0124752205
 H          0.5110901625       -0.9221195085       -3.3082247268
 H          0.6313476421       -2.2531720722       -2.5631145322
 O         -2.2136091902       -2.8801929170       -1.6200500791
 H         -1.5023283087       -2.6237854803       -2.2221385112
 H         -3.0133370589       -2.4547387767       -1.9546758563
 O         -1.8682063194       -3.2890349352        1.0492687397
 H         -2.7872111556       -3.4017891108        1.3381959920
 H         -1.9311411464       -3.1548915575        0.0824019586
 O          0.8927016758       -3.8393039826        1.0213158349
 H          1.1684525800       -3.1867923111        1.6775297258
 H         -0.0753493386       -3.8540237692        1.0325844417
 O          1.7084946355       -1.4874220519        2.4317487972
 H          1.6895547184       -1.0783892099        1.5426447663
 H          1.6764116566       -0.6996778961        3.0355067191
 O         -1.0492613148       -1.7871351446        3.1782395091
 H         -0.0941639666       -1.9094185271        3.2525550647
 H         -1.3464375579       -2.3472353291        2.4321999705
 O         -1.3180408335        0.9276239846        2.9004484358
 H         -1.1509985335       -0.0261188017        3.0216452342
 H         -2.2905746424        0.9991204224        2.9050569106
 O         -4.2163819660       -1.0776317780       -2.4205449691
 H         -3.4754257571       -0.4455413424       -2.6053557638
 H         -4.9525920810       -0.7903172723       -2.9607604438
 O          1.4627962258        0.8269072978        3.6315242795
 H          0.5542942150        1.1377727361        3.5355278356
 H          2.0233674183        1.3852576136        3.0677357018
 O          3.1999936250        2.0236046688        1.8145788660
 H          3.4632640424        2.0018385589        0.8853222676
 H          3.9639043551        1.6073539187        2.2760469910
 O          4.4584548843       -2.1006990402       -0.7159153877
 H          4.4506284190       -2.0461624876        0.2571534275
 H          3.6163329764       -2.5418320036       -0.9484608908
 O          1.4278179642        3.8856249687        0.5337006896
 H          2.0413367369        3.4454639344        1.1366416183
 H          0.5353305419        3.7887689426        0.9335270883
 O         -0.9827328754        3.3375511739        1.5474914810
 H         -1.5515962035        3.2125238497        0.7673003819
 H         -1.0405306991        2.5237653885        2.0691582436
 O         -2.6940473807        3.0249631434       -0.5682992425
 H         -3.4611739601        2.4971897997       -0.8543803610
 H         -2.1686502453        3.1867426049       -1.3790885544
 O         -1.1493574374        3.0276152449       -2.7683273313
 H         -0.2169019106        2.9707539170       -2.5195274148
 H         -1.4368347935        2.1268054507       -2.9974305194
 O          4.2843281565       -2.0276612271        2.0486925735
 H          4.5685824083       -2.8198422276        2.5044767256
 H          3.3332403195       -1.8898306831        2.2735739921
 O          5.2969271812        0.5507176456        2.5689417187
 H          4.9737858639       -0.3624117647        2.5701604846
 H          5.8446529526        0.6108693219        1.7670362726
 O         -4.7206260735       -0.7769277354        0.2442916276
 H         -4.6045036352       -1.0236851625       -0.6932684823
 H         -4.7145534814       -1.6080043906        0.7554447651
 O         -3.9870586776        0.8674930360        2.4257325713
 H         -4.1784159733        1.8073549590        2.2245143493
 H         -4.2535989447        0.3580807062        1.6447404030
 O         -3.7322750104       -1.4533111264        3.9395565537
 H         -3.9083672594       -0.5549949127        3.6186937166
 H         -2.7697024715       -1.5562654679        3.9492486921
 O         -4.4730587681       -2.9274597498        1.8996270328
 H         -4.2269799909       -2.4098718104        2.7163591656
 H         -5.2222984776       -3.4709460231        2.1403040095
 O         -4.1244763606        3.4689522202        1.7221637925
 H         -3.5497735420        3.9525583007        2.3192931570
 H         -3.6656472836        3.4808918573        0.8623658553
 O         -5.1368234803        1.8057623348       -0.7544901724
 H         -5.1031271794        0.9153751150       -0.3780936134
 H         -5.5505883037        2.3693393288       -0.0968590653
 O          6.1385190079        0.3859561598       -0.0491501468
 H          5.4550209884        0.9950116251       -0.3517862102
 H          5.8490640241       -0.4982238832       -0.2986329712
 O          1.6001087050        0.5029522514       -3.3832537986
 H          2.4906358770        0.1510010538       -3.2380174672
 H          1.5808617920        1.3862227277       -2.9987770598
 O          4.2059424684       -0.3344969441       -2.6887505083
 H          4.9169911861       -0.4786351270       -3.3137011578
 H          4.3001304071       -1.0266655844       -1.9911277161
