 xtb: 6.5.1 (579679a)
          10122203163D

 75 50  0     0  0            999 V2000
    0.5713   -3.8336   -0.8559 o   0  0  0  0  0  0  0  0  0  0  0  0
   -0.2734   -3.8585   -0.3800 h   0  0  0  0  0  0  0  0  0  0  0  0
    1.2523   -3.7238   -0.1712 h   0  0  0  0  0  0  0  0  0  0  0  0
   -3.2857    1.5642    0.1359 o   0  0  0  0  0  0  0  0  0  0  0  0
   -2.4647    1.2295    0.5523 h   0  0  0  0  0  0  0  0  0  0  0  0
   -3.1746    2.5368    0.1280 h   0  0  0  0  0  0  0  0  0  0  0  0
    0.3529    0.4952   -0.8380 o   0  0  0  0  0  0  0  0  0  0  0  0
    0.2091    1.3971   -0.4932 h   0  0  0  0  0  0  0  0  0  0  0  0
   -0.5247    0.0865   -0.9627 h   0  0  0  0  0  0  0  0  0  0  0  0
   -1.7385   -0.9282   -1.7608 o   0  0  0  0  0  0  0  0  0  0  0  0
   -1.2778   -1.3848   -2.4681 h   0  0  0  0  0  0  0  0  0  0  0  0
   -2.3032   -0.2140   -2.1752 h   0  0  0  0  0  0  0  0  0  0  0  0
   -3.1523    1.0922   -2.5454 o   0  0  0  0  0  0  0  0  0  0  0  0
   -3.4072    1.2930   -1.6256 h   0  0  0  0  0  0  0  0  0  0  0  0
   -2.5085    1.7902   -2.7852 h   0  0  0  0  0  0  0  0  0  0  0  0
    1.2079   -1.6766   -2.3128 o   0  0  0  0  0  0  0  0  0  0  0  0
    0.9807   -2.5315   -1.8864 h   0  0  0  0  0  0  0  0  0  0  0  0
    0.9929   -1.0049   -1.6474 h   0  0  0  0  0  0  0  0  0  0  0  0
   -1.3675   -3.0145    3.0727 o   0  0  0  0  0  0  0  0  0  0  0  0
   -1.5384   -3.4470    2.2037 h   0  0  0  0  0  0  0  0  0  0  0  0
   -1.2010   -3.7103    3.7084 h   0  0  0  0  0  0  0  0  0  0  0  0
    4.2285    0.5309    1.5422 o   0  0  0  0  0  0  0  0  0  0  0  0
    3.4072    0.5517    2.1056 h   0  0  0  0  0  0  0  0  0  0  0  0
    4.9335    0.8910    2.0799 h   0  0  0  0  0  0  0  0  0  0  0  0
    0.3051    2.6474    2.4290 o   0  0  0  0  0  0  0  0  0  0  0  0
   -0.1461    3.1747    3.0880 h   0  0  0  0  0  0  0  0  0  0  0  0
   -0.3249    1.9290    2.1593 h   0  0  0  0  0  0  0  0  0  0  0  0
   -2.4532    4.1014   -0.1963 o   0  0  0  0  0  0  0  0  0  0  0  0
   -1.5046    3.8872   -0.1331 h   0  0  0  0  0  0  0  0  0  0  0  0
   -2.6039    4.3428   -1.1131 h   0  0  0  0  0  0  0  0  0  0  0  0
   -3.4700   -2.4002   -0.3206 o   0  0  0  0  0  0  0  0  0  0  0  0
   -2.8753   -1.8562   -0.8777 h   0  0  0  0  0  0  0  0  0  0  0  0
   -3.9108   -1.7763    0.2796 h   0  0  0  0  0  0  0  0  0  0  0  0
    4.4143   -1.8926    0.2898 o   0  0  0  0  0  0  0  0  0  0  0  0
    4.4076   -1.0469    0.7758 h   0  0  0  0  0  0  0  0  0  0  0  0
    4.2669   -1.6529   -0.6435 h   0  0  0  0  0  0  0  0  0  0  0  0
   -1.7918   -4.0902    0.6757 o   0  0  0  0  0  0  0  0  0  0  0  0
   -2.4475   -3.4329    0.2920 h   0  0  0  0  0  0  0  0  0  0  0  0
   -2.1681   -4.9561    0.5156 h   0  0  0  0  0  0  0  0  0  0  0  0
    2.3696   -3.2388    1.1409 o   0  0  0  0  0  0  0  0  0  0  0  0
    3.1561   -2.7298    0.7838 h   0  0  0  0  0  0  0  0  0  0  0  0
    2.7301   -3.8598    1.7735 h   0  0  0  0  0  0  0  0  0  0  0  0
    0.1394    3.1486   -0.2564 o   0  0  0  0  0  0  0  0  0  0  0  0
    0.9688    3.3317   -0.7806 h   0  0  0  0  0  0  0  0  0  0  0  0
    0.3956    3.1498    0.6808 h   0  0  0  0  0  0  0  0  0  0  0  0
   -2.7836   -0.6025    3.3069 o   0  0  0  0  0  0  0  0  0  0  0  0
   -3.5577   -0.6616    2.7249 h   0  0  0  0  0  0  0  0  0  0  0  0
   -2.3762   -1.4816    3.3207 h   0  0  0  0  0  0  0  0  0  0  0  0
    3.9849    1.4385   -1.0724 o   0  0  0  0  0  0  0  0  0  0  0  0
    3.9158    0.6088   -1.5650 h   0  0  0  0  0  0  0  0  0  0  0  0
    4.0450    1.1873   -0.1375 h   0  0  0  0  0  0  0  0  0  0  0  0
    0.5353   -1.3752    1.8953 o   0  0  0  0  0  0  0  0  0  0  0  0
    1.1904   -2.0017    1.5378 h   0  0  0  0  0  0  0  0  0  0  0  0
   -0.0827   -1.9050    2.4234 h   0  0  0  0  0  0  0  0  0  0  0  0
    2.2132    3.3120   -1.8259 o   0  0  0  0  0  0  0  0  0  0  0  0
    2.9276    2.7330   -1.4852 h   0  0  0  0  0  0  0  0  0  0  0  0
    1.8849    2.8431   -2.6058 h   0  0  0  0  0  0  0  0  0  0  0  0
    2.0730    0.5804    3.0261 o   0  0  0  0  0  0  0  0  0  0  0  0
    1.5807    1.4000    2.8583 h   0  0  0  0  0  0  0  0  0  0  0  0
    1.5148   -0.1385    2.6714 h   0  0  0  0  0  0  0  0  0  0  0  0
   -1.1629    2.9020   -2.8297 o   0  0  0  0  0  0  0  0  0  0  0  0
   -0.7698    3.0636   -1.9625 h   0  0  0  0  0  0  0  0  0  0  0  0
   -0.4771    2.4269   -3.3221 h   0  0  0  0  0  0  0  0  0  0  0  0
   -1.2160    0.6625    1.6017 o   0  0  0  0  0  0  0  0  0  0  0  0
   -0.5486   -0.0205    1.4075 h   0  0  0  0  0  0  0  0  0  0  0  0
   -1.7749    0.2776    2.3211 h   0  0  0  0  0  0  0  0  0  0  0  0
   -4.6616   -0.4434    1.2559 o   0  0  0  0  0  0  0  0  0  0  0  0
   -5.6083   -0.3099    1.2087 h   0  0  0  0  0  0  0  0  0  0  0  0
   -4.2469    0.3448    0.8387 h   0  0  0  0  0  0  0  0  0  0  0  0
    0.9975    1.2652   -3.3464 o   0  0  0  0  0  0  0  0  0  0  0  0
    1.3142    0.5031   -3.8320 h   0  0  0  0  0  0  0  0  0  0  0  0
    0.8457    0.9461   -2.4268 h   0  0  0  0  0  0  0  0  0  0  0  0
    3.7794   -1.1355   -2.2657 o   0  0  0  0  0  0  0  0  0  0  0  0
    4.2208   -1.5254   -3.0196 h   0  0  0  0  0  0  0  0  0  0  0  0
    2.8192   -1.3847   -2.3304 h   0  0  0  0  0  0  0  0  0  0  0  0
  1  2  1  0  0  0  0
  1  3  1  0  0  0  0
  4  5  1  0  0  0  0
  4  6  1  0  0  0  0
  7  8  1  0  0  0  0
  7  9  1  0  0  0  0
 10 11  1  0  0  0  0
 10 12  1  0  0  0  0
 13 14  1  0  0  0  0
 13 15  1  0  0  0  0
 16 17  1  0  0  0  0
 16 18  1  0  0  0  0
 19 20  1  0  0  0  0
 19 21  1  0  0  0  0
 22 23  1  0  0  0  0
 22 24  1  0  0  0  0
 25 26  1  0  0  0  0
 25 27  1  0  0  0  0
 28 29  1  0  0  0  0
 28 30  1  0  0  0  0
 31 32  1  0  0  0  0
 31 33  1  0  0  0  0
 34 35  1  0  0  0  0
 34 36  1  0  0  0  0
 37 38  1  0  0  0  0
 37 39  1  0  0  0  0
 40 41  1  0  0  0  0
 40 42  1  0  0  0  0
 43 44  1  0  0  0  0
 43 45  1  0  0  0  0
 46 47  1  0  0  0  0
 46 48  1  0  0  0  0
 49 50  1  0  0  0  0
 49 51  1  0  0  0  0
 52 53  1  0  0  0  0
 52 54  1  0  0  0  0
 55 56  1  0  0  0  0
 55 57  1  0  0  0  0
 58 59  1  0  0  0  0
 58 60  1  0  0  0  0
 61 62  1  0  0  0  0
 61 63  1  0  0  0  0
 64 65  1  0  0  0  0
 64 66  1  0  0  0  0
 67 68  1  0  0  0  0
 67 69  1  0  0  0  0
 70 71  1  0  0  0  0
 70 72  1  0  0  0  0
 73 74  1  0  0  0  0
 73 75  1  0  0  0  0
M  END
