  181

 H          0.0000000000       -0.0000000000        0.0000000000
 O          0.8287724836        0.4411595942       -0.3959337166
 H          0.5770633184        1.0440462579       -1.1607549278
 H          1.5089173367       -0.2497129888       -0.8421236285
 O          0.6733226298        2.0659137148       -2.3120608953
 H          0.3700322975        2.9077532099       -1.9067617466
 H          0.5213227282        2.1704565129       -3.2730063303
 O          2.4625976420       -0.9490189892       -1.6214958740
 H          2.6275808803       -0.3670909884       -2.3956997690
 H          2.0801772260       -1.7835169023       -1.9708082263
 O          0.4764656576        1.5458340880        2.1212041843
 H          0.8564289266        0.6280968926        2.0791460381
 H         -0.1339572552        1.5400848418        2.8820224866
 O          1.3782639284        3.9080665367        1.0975443789
 H          2.3560583300        3.9381141310        0.9951437412
 H          1.1660633636        3.0056723649        1.3861333977
 O         -1.2859786071       -0.4838325042        0.7184066342
 H         -1.5898095146       -1.3188570425        0.2778383205
 H         -1.1247618862       -0.7167835188        1.6506995415
 O          1.7403693420       -0.7125456105        1.9878145448
 H          2.4331344699       -0.2983757439        1.4117372359
 H          1.2710842804       -1.3374719504        1.4041721911
 O          0.7185915238       -2.3729201755        0.1908563407
 H          0.2920285401       -2.1946899786       -0.6693426040
 H          1.5451252667       -2.8661854396        0.0237235396
 O         -0.3194685941       -1.3516721179       -2.1374734858
 H         -0.7582848985       -2.0172266336       -2.7126534704
 H         -0.9909910226       -0.6704475748       -1.9321008741
 O         -1.8937106435        0.7503207378       -1.7520687530
 H         -2.8073368089        0.3833237852       -1.6651471587
 H         -1.7644441918        1.3535510846       -0.9931349868
 O          3.5936831997        0.3468315951        0.5534799947
 H          3.3545209455        0.9927525182       -0.1462682318
 H          4.1503037079        0.8348700031        1.2017365442
 O          2.7048045728        0.4614328488       -3.8790599513
 H          1.8028137498        0.4026135493       -4.2305170592
 H          3.2083225648       -0.2735718400       -4.2939783537
 O         -1.3495039009        2.4146617552        0.3000655848
 H         -0.6178534689        2.0932926851        0.8589433161
 H         -1.1889905314        3.3422208428        0.0828332740
 O         -1.2238982534       -0.9730248428        3.3494266024
 H         -0.9200162240       -1.5782948808        4.0567656414
 H         -1.1799158083       -0.0863457027        3.7439663593
 O          3.2257884066        2.0884818911       -1.3762438374
 H          2.3949149663        2.1235486949       -1.8858808961
 H          3.9263960365        1.7433521521       -1.9633716354
 O         -2.0855631273       -2.7404229859       -0.3111751962
 H         -2.8992712175       -2.7315920687       -0.8628080741
 H         -2.3346789453       -3.2389511895        0.4943098846
 O         -3.6965883745        0.8429151884        0.9301965201
 H         -2.8086224721        0.4460282963        0.8544292792
 H         -3.9202526071        0.8361600508        1.8728413631
 O         -2.6030851836        3.2503649235        2.6002393381
 H         -2.3928294252        2.8898895624        1.7168249193
 H         -2.0085124708        4.0147446253        2.7058245178
 O         -4.3625186667       -0.0988849670       -1.5832840657
 H         -4.5132642952        0.0066683370       -0.6306831351
 H         -4.7898527102        0.6692896991       -2.0297496427
 O          0.1727613710        4.4248522642       -1.2423963864
 H          0.6952180126        4.3668935309       -0.4135410926
 H          0.7789320623        4.7278721744       -1.9447315041
 O         -1.3324660636        1.6265193506        4.1631271114
 H         -1.8534750953        2.2749904412        3.6106874792
 H         -0.7226463791        2.1660496612        4.6928091867
 O          2.5823855693        1.8800760639        3.8430703173
 H          2.0282071057        1.8310282633        3.0437398340
 H          2.3604110489        1.0560352353        4.3186303675
 O          0.1846312726       -0.1965633776       -4.5084349354
 H          0.0677557958       -0.5311707927       -3.5892202424
 H         -0.7135741240       -0.1734329751       -4.8724002737
 O          0.6275394482        3.3489675977        4.9253150488
 H          1.4303370322        2.8973875326        4.5682107936
 H          0.8543078148        3.6387874075        5.8061388480
 O         -3.7628658457       -1.7348374617        3.1094624075
 H         -4.2563200023       -1.0423893694        3.5602636677
 H         -2.8232745717       -1.4422372185        3.1551618151
 O          1.6897405264       -3.2995206608       -2.6090691651
 H          0.9276878544       -3.8031875041       -2.2246722760
 H          1.4610135642       -3.1289024577       -3.5478067272
 O         -2.3890942165        2.2718316614       -3.8493899471
 H         -2.4348571811        3.1675987960       -3.4298364877
 H         -2.1218600850        1.6902044824       -3.0936137764
 O          5.3498129875       -1.0651161085       -0.8926700011
 H          5.0258616866       -1.8301601371       -1.3820591637
 H          4.5745876543       -0.6881198121       -0.4212058407
 O         -0.0150348870       -3.8587083727        2.2734668413
 H          0.3188711159       -4.6942677545        1.9092188845
 H          0.1099772370       -3.2277716766        1.5315633791
 O          3.0658992762       -3.6835651172        0.2682438876
 H          3.4179574259       -3.2853900503        1.1062382648
 H          3.7052016266       -3.4902355061       -0.4276711674
 O          3.8012691160       -2.4465393830        2.4642155674
 H          3.1291019597       -1.7388505222        2.4346046274
 H          4.6644311191       -1.9925853370        2.3557476261
 O          1.3516101407       -0.2781024788        4.8567616807
 H          1.5374528643       -1.1456008465        4.4533449025
 H          0.9403682944       -0.4636348519        5.7012455268
 O         -0.3380167401       -4.5186856570       -1.4953916788
 H         -0.0199490558       -5.0874952071       -0.7827850595
 H         -1.0035169281       -3.9282808081       -1.0932998993
 O          1.1515250802       -2.6386178930       -5.1340499739
 H          0.3293576726       -3.1356715943       -5.2165333793
 H          0.8552885423       -1.7073577509       -5.0426879290
 O          4.2721525216       -3.3431718907       -2.2905009775
 H          4.6755801047       -4.1819758817       -2.5091146861
 H          3.2925322301       -3.4497086057       -2.4018604709
 O         -2.4144312556        4.3731170401       -2.3067245867
 H         -1.5372332914        4.5053638887       -1.9204287287
 H         -2.9807142017        4.0413370275       -1.5867614727
 O         -4.0146661682        3.2568293492       -0.3462818340
 H         -3.8988404465        2.3930073130        0.0988295308
 H         -3.7972316568        3.9278483087        0.3076286550
 O         -0.4347742694        4.9175250968        2.8483185194
 H         -0.1238922677        4.5656067158        3.6953847812
 H          0.2744406451        4.6887778953        2.2176147476
 O         -1.4358125221       -2.7412263806       -4.0818148474
 H         -1.9659357798       -3.5123848543       -3.7613115871
 H         -2.0592738278       -2.1032812190       -4.4430226524
 O          5.9594810168       -0.9668537342        1.9039821694
 H          6.0546431014       -0.9881759040        0.9410911128
 H          5.8869050009       -0.0401262569        2.1589247259
 O          1.2013479382       -5.6140013772        0.6079219158
 H          1.9524944514       -5.0042986773        0.4608314225
 H          1.5517280980       -6.5028521723        0.5994701531
 O          1.7524734342        4.6906963594       -3.4234880574
 H          2.5079129988        4.1135871249       -3.6720828503
 H          1.0838663632        4.4907570403       -4.0871840611
 O         -2.9508919867       -4.6160596301       -3.0526788990
 H         -2.4832953792       -5.0841105671       -2.3477506991
 H         -3.6313287985       -4.0848675666       -2.6132590495
 O         -2.5105489190       -0.1852776588       -5.1089063949
 H         -3.1068491245       -0.2723176128       -5.8518368832
 H         -2.6704289924        0.6924320659       -4.7253435503
 O          0.0616017930        2.7360757055       -4.8166128788
 H          0.2919096701        2.1710199079       -5.5541105734
 H         -0.8958693945        2.6043354562       -4.6330954743
 O          1.7053046178       -2.9610490989        4.1756744744
 H          1.1295899229       -3.2900971501        3.4553030265
 H          2.6118634965       -3.0365626965        3.8491788685
 O          3.8662763632       -1.7831353946       -4.6305858375
 H          4.1503126447       -2.2826240786       -3.8487781911
 H          3.1291688448       -2.2682774831       -5.0222680062
 O         -4.1142582463        0.9621328972        3.7074770268
 H         -3.2379454266        1.0452074427        4.1079557654
 H         -4.5018106554        1.8393429258        3.7372955157
 O          4.8986047796        1.7814936419        2.3423914661
 H          4.2338761999        1.8526736934        3.0506453814
 H          4.8618001563        2.6229275312        1.8630179749
 O          3.9901806473        3.7481517271        0.5966859407
 H          4.0786580023        4.6225473658        0.1998747434
 H          3.8098260536        3.1604500168       -0.1661405043
 O         -5.0480852098        2.1771421920       -2.7167173527
 H         -4.9190387400        2.7619101062       -1.9565011653
 H         -4.3082184678        2.3459803640       -3.3162335668
 O         -2.6701996572       -4.0391098130        1.9885176888
 H         -3.1800460013       -3.4236478909        2.5291109793
 H         -1.7421596087       -4.0054445718        2.2985785276
 O         -4.4219626820       -2.7669231686       -1.5829358787
 H         -4.4625794409       -1.8462736934       -1.8974637447
 H         -4.8900090683       -2.7249102738       -0.7326775574
 O          5.2834496940        0.9396929262       -2.6953377340
 H          5.3061452355        0.4946835264       -3.5441256185
 H          5.4733044053        0.2473291278       -2.0255422671
 O         -5.2394932185       -1.8716531875        0.8264526305
 H         -4.6538898520       -1.8393287139        1.6071006717
 H         -6.1289592129       -1.7245353226        1.1441388171
 O          3.6827042063        2.9888865395       -4.1545787383
 H          4.5504818286        2.9390360561       -3.7486723858
 H          3.3267909965        2.0805923734       -4.1392327376
 O         -0.6131302485       -2.5173401835        5.4606836532
 H         -1.1417012906       -3.3096497867        5.5567210207
 H          0.2906852151       -2.8055595813        5.2511498998
 O         -1.9988124332        5.1911919504        0.5104853223
 H         -1.5158394463        5.4631116295        1.2994994410
 H         -2.0246832717        5.9396972089       -0.0858731194
 O         -2.8641578689       -5.5425129070       -0.3480303894
 H         -3.7989099997       -5.6235355569       -0.5371992252
 H         -2.8008040379       -5.2614942934        0.5739732241
 O          2.9303261458        5.6455977944       -1.0422937418
 H          2.7619489641        5.4397541645       -1.9704263122
 H          2.3267355568        6.3472568718       -0.7996264093
