  146

 H          0.4630927076        1.1941025328        0.8323452959
 C          0.5529035760        0.5095402432       -0.0251092073
 H          0.4633421182        1.0989800596       -0.9466436098
 C         -0.5779259333       -0.5149488604        0.0205351870
 H         -0.4518492549       -1.1270258235        0.9278134321
 H         -0.4840892691       -1.1748678656       -0.8448928485
 N         -1.8603253885        0.1647702475       -0.0623309410
 H         -2.6131021662       -0.5138473280       -0.0751527666
 H         -1.9956541840        0.7570092261        0.7508171933
 O          1.7808081027       -0.1833448060        0.0209869108
 H          2.5006908392        0.4507195085       -0.0567171280
 O          3.4316489454       -0.5096328995        2.6557445292
 H          2.4624362371       -0.4287241453        2.7025459339
 H          3.6660247213       -0.5476557333        1.7037356577
 O          4.0270345478        2.1884478362        2.3123876558
 H          5.0064453665        2.2447491721        2.1754919270
 H          3.8793382156        1.3002592067        2.6752571629
 O         -2.1735003613        2.0161252281       -1.8802059983
 H         -1.9301058742        1.3391381404       -1.1698530609
 H         -2.1692220129        2.8695819009       -1.4118504182
 O          1.3184272210        2.8273114874        1.9817311542
 H          0.7992810052        3.0507637232        2.7732321435
 H          2.2516375560        2.7739921028        2.2311775308
 O          0.4992501359        2.8362514136       -2.4408040067
 H         -0.4021996936        2.5297843103       -2.5988534919
 H          1.0881226718        2.3751975810       -3.0590642365
 O          3.4101335915        2.0043087888       -0.2975351650
 H          3.7206826460        2.0189204818        0.6338436894
 H          3.2956099617        2.9507722083       -0.5119730180
 O         -2.4043121299        2.4110583965        1.8614764961
 H         -2.3057196759        3.0603874798        1.1398199727
 H         -3.3570358401        2.3678932786        2.0742869535
 O          4.4603660786       -0.7707728116        0.2073542646
 H          4.0068415756       -0.8882561253       -0.6543913386
 H          5.2535201282       -0.2203844861       -0.0050871136
 O          0.8261106742       -0.8938058413        3.3438623442
 H          0.7278503020       -1.7883021220        2.9215252401
 H          0.9897866640       -1.0556834464        4.2743600864
 O          3.4532208458       -1.1574392347       -2.2285609228
 H          2.5175244908       -1.0665433941       -2.4511036930
 H          3.8878961490       -0.3248568355       -2.5325946690
 O         -1.6029602410        0.3030436240        3.4882636406
 H         -1.7289510818        1.0517786345        2.8895703269
 H         -0.6962622562       -0.0297831989        3.3519979492
 O          4.4182967461        1.2596085365       -2.6537765158
 H          3.7608411743        1.5627388457       -3.2927729570
 H          4.0987979188        1.5823520143       -1.7815563832
 O          2.0285975852        1.2928230483       -4.1507799741
 H          1.6645885712        0.4266597796       -3.8788970603
 H          1.9400830562        1.3396167660       -5.1024479479
 O          0.8453369828       -0.9811279617       -3.3040796970
 H         -0.0884069487       -0.7041627027       -3.3912951230
 H          0.8196822100       -1.9470230408       -3.1958003807
 O          0.8514570261       -3.5820299465       -2.4726098615
 H          1.2665666551       -3.3657721080       -1.6016534062
 H          1.3669595278       -4.2936144351       -2.8525347449
 O          1.8874824944       -2.8860074958       -0.1351857590
 H          1.8721617720       -1.9057955661       -0.1395874636
 H          2.8140163326       -3.1540082991        0.0328100874
 O         -3.2904211742       -1.4692851065        2.4479936921
 H         -2.7404657795       -2.2446470284        2.2265818988
 H         -2.6958698863       -0.8282740728        2.9007576514
 O         -6.5517379293        2.0570906796        0.2276374403
 H         -6.0624926055        2.2674966650        1.0415684698
 H         -5.8710640589        1.8862609510       -0.4520984510
 O         -4.6690441818        1.1011517152       -1.4276446165
 H         -3.8065580334        1.4981053059       -1.6653570336
 H         -4.4824292443        0.3316586415       -0.8617083731
 O         -4.4863741890       -1.2492010371        0.0992865082
 H         -4.0788981297       -1.3115277161        0.9937614172
 H         -5.4556802229       -1.0993235950        0.2647144869
 O          0.6854444506       -3.2752671621        2.2377843076
 H          1.0706988077       -3.2096326246        1.3358640458
 H         -0.2409114014       -3.5353063360        2.0986048933
 O         -1.7379309597       -0.2043552870       -3.4769509813
 H         -2.3335746459       -0.8660075901       -3.0608519064
 H         -1.8287246621        0.6028322122       -2.9514165353
 O          6.4816334218        0.6176378003       -0.7598666121
 H          6.9820227990       -0.1856146484       -1.0474852661
 H          6.0995982056        0.9943521150       -1.5602170938
 O         -3.5510528068       -1.8698297772       -2.3921607261
 H         -3.8633128214       -1.7208602257       -1.4831831775
 H         -4.3070957366       -1.5763423595       -2.9471834877
 O         -6.9653096721       -0.6268288963        0.5626198989
 H         -6.9421951580        0.3491979456        0.4767056968
 H         -7.3675578162       -0.9470165836       -0.2800828283
 O         -1.6757332251       -3.5950196667       -1.3078408321
 H         -2.2743093909       -3.0680109853       -1.8557123674
 H         -0.8400938495       -3.6657030049       -1.7926326987
 O         -1.8893791795       -3.5586152928        1.3925102108
 H         -2.7037129770       -4.0876021343        1.3781790890
 H         -1.6771224645       -3.4769608768        0.4395925195
 O          6.5793732678        1.8941892286        1.7485117284
 H          6.6630840272        1.6197776501        0.8232564042
 H          6.6892376414        1.0726449998        2.2657016166
 O          5.2524788080       -3.2371982794       -2.0699915958
 H          5.0113267510       -3.5730728026       -1.1993469758
 H          4.6008354758       -2.5480254835       -2.2794680240
 O          6.3525538269       -0.5571454857        2.9146054883
 H          5.3979323183       -0.6328721338        3.0137212306
 H          6.6209823433       -1.2262390913        2.2642922352
 O         -5.5400964076       -0.4626179342       -3.4797070953
 H         -5.3906375283        0.2045237074       -2.7806642806
 H         -5.1252959593       -0.0775393913       -4.2704381767
 O         -5.0330174601        2.1755439889        2.5067938641
 H         -5.2554754505        1.2297013510        2.7435765902
 H         -5.2890673170        2.6975523564        3.2674820029
 O         -5.7086964290       -0.2897023198        3.0618137898
 H         -4.9179680563       -0.8507959947        3.0167394805
 H         -6.3071664411       -0.5940259769        2.3646577168
 O          4.4450037323       -3.3416829944        0.6769710388
 H          4.1278346381       -3.4608800637        1.6039607685
 H          4.5228900232       -2.3601027626        0.5536372851
 O          3.3941644323       -3.2195769418        3.0998140857
 H          3.4392178919       -2.2439283438        3.1306662634
 H          2.4602552553       -3.4488302956        3.0102642275
 O          7.0185605977       -2.6868362376        1.2225248544
 H          7.5083376082       -3.2580164990        1.8108157446
 H          6.1708235974       -3.1318298244        1.0195555200
 O          7.4648109698       -1.7519540544       -1.3826053182
 H          6.7590050099       -2.2929664352       -1.7883047369
 H          7.5525058863       -2.0852785400       -0.4783564944
 O          0.5734608179        4.2457025924       -0.1424803961
 H          0.8412405235        3.6767801209        0.6178720930
 H          0.6763126252        3.7070511097       -0.9517107114
 O         -2.0240314926        4.1550271852       -0.1880798118
 H         -1.0272933118        4.2556504620       -0.1438402470
 H         -2.3836004942        5.0406402334       -0.2298426641
 O         -7.8098721671       -1.0821232100       -1.9120221279
 H         -8.2580599123       -0.2184704981       -1.9479890715
 H         -7.1126910682       -1.0442409760       -2.5811299118
 O         -4.2824573437       -4.1621286346        0.2589771426
 H         -4.5483170582       -3.2396785729        0.1411926743
 H         -3.8620335601       -4.4275910040       -0.5629486551
 O         -0.6301086324        3.1768359226        3.8710103062
 H         -1.3080583010        3.0808325074        3.1798019761
 H         -0.7488289677        2.4247037353        4.4566940941
 O          3.2530015813        4.6993778649       -0.4614152046
 H          3.6595870565        4.9729881379        0.3624341634
 H          2.2921291800        4.8255944433       -0.3651364406
 O         -3.7332683401        0.8919424201       -5.0050160417
 H         -3.6580257813        1.7942554367       -4.6900072388
 H         -2.9412028556        0.4231670877       -4.6842320633
 O         -8.7811012411        1.3994308910       -1.2567843794
 H         -9.3781158158        1.1352484379       -0.5548663971
 H         -8.0367340579        1.8391069631       -0.8190454923
