  537

 H         -0.5425046315       -1.1597996972        0.9180892914
 C         -0.6112506054       -0.5412953920        0.0100746888
 H         -0.5391301429       -1.1969142842       -0.8712451461
 C          0.5103668195        0.5037866588       -0.0094879993
 H          0.3911107338        1.1518909424        0.8600974715
 H          0.3944403446        1.1152657653       -0.9056418170
 O         -1.7891824671        0.2100262032       -0.0077311635
 H         -2.5646587428       -0.3620780400        0.0026732761
 N          1.8637399429       -0.1172776808        0.0059495374
 H          1.9871279734       -0.7237055377       -0.8163101767
 H          1.9839792648       -0.6890769575        0.8531043901
 H          2.5930827548        0.6072395087       -0.0077049639
 O          2.1707631811       -1.6315131168       -2.1727571495
 H          1.3470220759       -1.6292927152       -2.6855947694
 H          2.3611073111       -2.5768708024       -1.9995097758
 O          1.9674789993       -1.1311703077        2.4549849717
 H          2.7080256494       -1.7427515586        2.6204297972
 H          1.1690504374       -1.6575001950        2.6821977280
 O          2.6040106862        2.0375714860       -1.6935793276
 H          2.5310984904        2.8031432066       -2.2907414170
 H          2.9093625342        1.3284287626       -2.2776139517
 O          0.0240667932       -1.8094380547       -3.7083112011
 H         -0.5720039127       -1.0807024794       -3.4535981350
 H         -0.4518596089       -2.2885586062       -4.4209147416
 O         -0.2987710376        0.4948597061        3.1338799049
 H         -0.6286088472        1.3689114710        2.8853047349
 H         -0.9782958378       -0.1492594750        2.8822252919
 O         -2.5946547380       -2.5199769847       -1.8216904511
 H         -1.7848581894       -3.0463185382       -1.9785669234
 H         -2.3952701346       -1.6190998266       -2.1099806606
 O          1.0439469632       -3.0171303806        0.2549249352
 H          0.7236941024       -3.1845396378        1.1476504849
 H          2.0154347718       -2.9980433630        0.2941836455
 O         -1.7757341843       -0.0487843482       -2.8365160468
 H         -2.6185695908        0.1625109335       -3.2664642831
 H         -1.3893125240        0.7759184174       -2.5103319762
 O         -1.9524651680        2.9079041244       -0.1944146877
 H         -2.8816343255        3.2223085108       -0.2344100260
 H         -1.9206851440        1.9631546053       -0.4028212576
 O         -2.1207137031        3.0355312903       -4.0852716472
 H         -2.4436380398        3.8959480700       -4.4374791112
 H         -2.2727229559        2.3749171701       -4.7937844039
 O         -3.0227251615        1.1503657967        2.4080329999
 H         -2.5756868020        0.8095986648        1.6164261450
 H         -3.7584718753        0.5452887209        2.6127562697
 O         -0.5253657635        5.4047520834       -3.7019370678
 H         -0.9234831097        5.3466324513       -2.8018898353
 H         -1.1745912608        5.8475989404       -4.2515292405
 O          2.2545819779       -2.1091903088       -5.2503712512
 H          3.0136731321       -2.0473501592       -4.6240753397
 H          1.4565578840       -1.9032091239       -4.7276247278
 O          4.0299687488        1.1150237889        0.9443777935
 H          4.9190603912        1.4192315331        0.6711479100
 H          3.7809708634        1.6221510723        1.7249931052
 O         -0.3242932022        2.2666365636       -2.3689129174
 H          0.1236230288        2.9351008961       -1.8037757957
 H         -0.9393429263        2.7523551973       -2.9463220816
 O         -0.4371118906       -4.0110469526       -1.7410745636
 H         -0.0104879229       -4.2199736353       -2.5809007852
 H          0.2213699446       -3.6967242247       -1.0892315412
 O         -2.3217493338       -3.4711483020        0.7543399195
 H         -3.0149426971       -4.1688398925        0.8126292811
 H         -2.4502075603       -3.0432727072       -0.1107054287
 O          0.0961786758       -2.8628448392        2.9990042037
 H          0.2885892144       -3.1621164869        3.8968868971
 H         -0.7808416688       -2.4346705588        3.0158823918
 O          2.3948722512        1.3655558033        3.2159635535
 H          2.0430033517        0.4976608794        2.9204702315
 H          1.8382566955        1.6508744433        3.9697800406
 O          1.7754820155       -5.2166755091        2.9410165874
 H          0.9847973522       -5.1488737138        2.3735488830
 H          1.4710587591       -5.0213421281        3.8432605581
 O          3.6894748658       -2.5938825704        0.3379556024
 H          4.0403528018       -1.9296996238       -0.2849969774
 H          3.9977678474       -2.2988534671        1.2118985538
 O          4.5265532182       -0.5812754274       -1.3292370859
 H          3.7857696920       -0.8312660419       -1.9004807171
 H          5.3400425973       -0.8654135352       -1.7884529709
 O          4.8722344740       -1.0514776020        2.1473336332
 H          4.5468322026       -0.2844494048        1.6253472666
 H          4.7886298280       -0.7857116344        3.0802900534
 O         -3.9314513889       -1.2599922976        0.3056652773
 H         -4.4613859887       -1.2693407247       -0.5154562248
 H         -4.4705345361       -0.7366754555        0.9315360876
 O          0.7481425229        0.9648378319       -4.3639845426
 H          1.6557086636        0.6639660439       -4.1672879009
 H          0.3932181485        1.3157521626       -3.5191681416
 O         -4.8925420315       -3.2102879115        2.0853549072
 H         -4.4329937500       -2.7464281406        1.3680103652
 H         -4.2580807620       -3.3006003130        2.8169291182
 O         -4.3217514017        3.4512465122        2.4755744731
 H         -3.7213854239        2.6777320970        2.4259108105
 H         -4.1285320963        3.9137668809        3.3126603714
 O         -2.1386070904       -1.5150066623        2.6004701114
 H         -2.9681439539       -1.3842962485        3.0999620515
 H         -2.3295821248       -2.1587034274        1.8897722856
 O         -0.8910194389        3.1249873360        2.1702748202
 H         -1.3246596954        3.0016347874        1.2888139388
 H          0.0656506443        3.2732559909        1.9634189339
 O         -4.1098897864        2.5330873707       -2.4832696258
 H         -4.2324802983        1.6267146623       -2.8414924589
 H         -3.2697700285        2.8345706608       -2.8839455143
 O         -5.6570642471        0.2286980794        1.6217373900
 H         -5.6385440757        0.8759222999        0.8921946121
 H         -6.3078855102       -0.4599079456        1.3855628703
 O         -4.4119584340       -0.7634012587        3.7936346673
 H         -5.2525433546       -1.1272989752        3.4713342865
 H         -4.4738515804       -0.8193779100        4.7642286111
 O          1.6641126821        3.4670422652        1.7100237149
 H          2.0323447769        2.6930229780        2.1809757954
 H          1.8047279838        4.2273034468        2.3084590130
 O          3.9949894961        3.7884532114       -0.2145318827
 H          4.1482998027        3.5650866831        0.7234315589
 H          3.4935041126        3.0496127316       -0.6202604851
 O          0.7795662961        4.0958319493       -0.8347652730
 H          1.2681037698        3.8608822584       -0.0356093670
 H          1.2502555905        4.8069825865       -1.2965371672
 O          4.5499745749        3.3840910782        2.4298535805
 H          5.3273915591        2.8119267547        2.5546963761
 H          4.8559283816        4.3253820392        2.5161907289
 O          5.3724710035       -3.4662296022       -1.7308167774
 H          6.0132071099       -4.1576274514       -1.9630441859
 H          5.7845643083       -2.9563307695       -1.0067850862
 O         -5.6461082526        1.8975290881       -0.4606620606
 H         -6.1182478182        2.6502284103       -0.0304834316
 H         -4.9232840555        2.2794157474       -0.9890121146
 O         -6.1787467640        1.9208709335        3.5962063509
 H         -6.1575886518        1.1479548746        2.9975625560
 H         -5.6088448534        2.5858048299        3.1546394773
 O         -1.5054548683        5.7657202019        2.2612998190
 H         -1.3859774631        4.7945779441        2.2290839518
 H         -0.7930033807        6.1284072230        1.7004815659
 O         -4.3223650711        0.1192106687       -3.6055766646
 H         -4.9578753126       -0.2932912659       -2.9763910169
 H         -4.8167293215        0.4301978854       -4.3944727536
 O         -2.5467550519        1.4646574118       -6.2116270695
 H         -2.2265504126        2.2455829102       -6.7101369155
 H         -1.8991798290        0.7572569816       -6.3798007559
 O         -4.2074457490        4.2133975292       -0.0333738448
 H         -4.4343834433        3.9593172063        0.8857548211
 H         -3.8273609643        5.1083401450        0.0677010233
 O         -5.4305694092        3.6904490847       -4.5744800955
 H         -6.3250224661        3.9841316274       -4.3785130229
 H         -5.0642772384        3.3524670372       -3.7273462621
 O          3.3029618384        0.4403208204       -3.8013690306
 H          3.5786615545        1.0209138065       -4.5309473719
 H          3.8227947914       -0.3738913659       -3.8832745959
 O          2.8392730665        3.9688376974       -3.5786388870
 H          3.7069032667        3.8052905873       -3.9992360395
 H          2.1590861942        3.8313309417       -4.2654208137
 O          2.9382568411       -7.0376722415        1.2772608469
 H          3.6108478785       -6.3695243607        1.0508314418
 H          2.4643466710       -6.6525610864        2.0308430302
 O         -5.6638265908       -1.0466655402       -1.7211902202
 H         -5.6933131517       -2.0090540183       -1.8961241747
 H         -6.5248190034       -0.7891711274       -1.3562923149
 O          4.6400769570       -5.0977470057        0.5772760074
 H          4.2749403805       -4.1935075400        0.4791684290
 H          5.5912073803       -4.9944289225        0.7875977516
 O         -7.1153269831        3.6316085391        0.7670738977
 H         -7.5917398560        3.1218245412        1.4458251101
 H         -6.7973917999        4.4833855909        1.1371677495
 O          2.7718060654        6.1540858545        0.0378506605
 H          3.2287190837        5.2851665888        0.0081763663
 H          2.7077846189        6.4483972277       -0.8812413532
 O          3.5208849790       -3.2136098611        3.0516914485
 H          3.3494828586       -2.9227814494        3.9682091794
 H          2.9762095104       -4.0189369607        2.9183202120
 O         -2.4290483465        1.0041812026        5.0976401758
 H         -2.5471621802        0.9400256067        4.1309097849
 H         -3.3330361193        1.2009415963        5.4488663205
 O         -6.9199239952       -1.9704148004        0.7584286292
 H         -6.4386391456       -2.6032820070        1.3087613266
 H         -7.1535748720       -2.4290930397       -0.0726059879
 O          0.5441425974       -1.0019912436        5.2393579644
 H          0.3573067410       -0.4411336568        4.4630958655
 H          0.4156340141       -0.4156016945        6.0177186638
 O          2.9033603393       -2.1147973422        5.4421217048
 H          2.7844340529       -3.0236693554        5.7686276217
 H          1.9973736813       -1.7269785188        5.3826134112
 O          0.6517931259       -4.3000192342        5.2814942530
 H          1.1676321569       -4.7542359181        5.9495213199
 H         -0.1679386677       -4.8120189564        5.1020638815
 O          0.2189893836        6.7496169802        0.4618170625
 H          1.1357930508        6.3958515222        0.3762583170
 H          0.3132944598        7.7005859495        0.5071616555
 O          6.4638331388        1.4247101040        2.8590343416
 H          6.4007432351        0.4565901819        2.8030404054
 H          6.5387668489        1.6286038884        3.8048477824
 O         -2.0438082010       -1.6434962372        5.6885939821
 H         -2.1888471820       -0.7098940374        5.4427529037
 H         -1.0799315461       -1.7542007961        5.6544494678
 O         -6.0434298070        5.4442055450       -1.4920302464
 H         -6.4734377686        5.9753294425       -0.8150381516
 H         -5.4640785528        4.8254428352       -0.9949919157
 O         -3.2130189969        5.2506444436       -4.9912957356
 H         -4.0658150895        4.8160065558       -5.1593292095
 H         -3.3920297209        5.7989321176       -4.1890644637
 O         -6.9584775821       -1.6608691926        3.6499651681
 H         -7.6417923949       -2.2995748453        3.3636207874
 H         -7.4613480036       -0.8999509139        4.0211045089
 O          6.5877732254       -2.1511887167        0.3168118841
 H          6.0605245869       -1.7890435535        1.0505141274
 H          7.2172621474       -1.4404356352        0.0754202189
 O          5.4616238414        1.8120917346       -2.3055027591
 H          4.9546695227        1.0469225119       -1.9734797371
 H          6.3625119218        1.4893152543       -2.4726047719
 O          1.7771630445        5.3102288677        3.6345855660
 H          2.4157340349        5.0071086982        4.2925540350
 H          0.9785433694        5.6319134050        4.1178485487
 O          6.3956423562        2.0096069738        0.1496705077
 H          6.8793950551        2.7202488666        0.6085505916
 H          6.0498936755        2.3363627904       -0.7001868905
 O          2.7403771077       -4.2024639172       -1.9921762726
 H          3.6814820762       -4.1741970213       -1.7525473154
 H          2.2793477624       -4.8345952987       -1.3948080477
 O         -3.4841844083        6.6484854977        0.7236069370
 H         -2.8036180153        6.3881941153        1.3856881737
 H         -3.1144004680        7.3426981469        0.1790241800
 O         -0.4291601681       -5.2808995314        1.3335451191
 H          0.1400047047       -5.4789764590        0.5600748170
 H         -1.0189969502       -4.5452175302        1.0643176365
 O         -1.5567329938        5.4037319848       -1.2369624986
 H         -0.9055330109        5.8913339486       -0.7071434730
 H         -1.4994950096        4.4818486427       -0.9244352552
 O          4.3266686790        0.0839398823        4.5402706390
 H          3.6523433632        0.6427818958        4.0954299288
 H          3.8400345241       -0.5959309884        5.0227645550
 O         -5.1078631875       -3.5995958837       -1.8654900832
 H         -5.2210416043       -4.3584930792       -2.4586615946
 H         -4.1699160641       -3.3444533045       -1.8884965135
 O         -4.8672039461        1.5904887828        5.8639443346
 H         -5.1219179021        0.8039834748        6.3592819438
 H         -5.4466662813        1.6161149146        5.0628417607
 O         -1.3089142461        3.3773898896        4.8278062892
 H         -1.6483134844        2.4798274798        5.0512721527
 H         -1.2125767189        3.3603605184        3.8576423044
 O          4.4687794581       -2.0934334121       -3.8351535581
 H          5.1599555412       -2.4454519658       -4.4366776684
 H          4.6369119929       -2.5884341088       -3.0093781716
 O          7.2406377533       -4.6854923097        0.8220921753
 H          7.8224734635       -4.7507396202        1.6091820436
 H          7.1430784938       -3.7227900050        0.6524028002
 O          5.7619126356        0.2466276070       -5.0972063364
 H          6.0316100860       -0.2923099361       -4.3282086016
 H          5.4736391302       -0.3694168003       -5.7912238969
 O         -3.0078570470       -4.9216291624       -3.9899541481
 H         -3.2470437165       -3.9940084158       -4.1902163844
 H         -2.1090695899       -5.0534183346       -4.3125347883
 O          6.7282625797       -0.9284171052       -2.8187547108
 H          7.4158468715       -0.3181656757       -2.5282842044
 H          7.1506652865       -1.8070161793       -2.9141199352
 O         -6.5482474966       -4.8664010961        0.1561379684
 H         -6.3292229226       -4.3543026148       -0.6356247708
 H         -5.6812092963       -5.1676672061        0.4768441420
 O         -7.7926346383        0.2807855554       -0.4474362443
 H         -8.4971177082        0.7221161728       -0.9640565978
 H         -7.0256745245        0.8666174694       -0.5197535128
 O         -6.8831547433        1.6278020164       -3.0311259093
 H         -6.3792236747        1.6803260315       -2.2096425500
 H         -7.3535872498        2.4760565212       -3.1143588534
 O         -8.5793415077        0.3145094197        4.3076848579
 H         -8.4399752745        0.8157605134        3.4802656487
 H         -9.3970024365       -0.1893328894        4.1615338525
 O         -8.4489829632        1.4856234310        1.8622372037
 H         -8.2448371384        0.9204000267        1.0907970313
 H         -9.4209073765        1.5496068818        1.8967202858
 O         -0.2059720703       -4.9448424934       -4.4299387087
 H         -0.4743467331       -4.2951778250       -5.0970744465
 H          0.7570284839       -5.0612426052       -4.5736212369
 O          8.9596230000        0.9831523066        2.0856328132
 H          8.0641618536        1.2628471413        2.3786540764
 H          9.3675265960        0.5131940747        2.8365660975
 O         -7.5195988764       -2.1146585738       -5.2825160530
 H         -7.6069264359       -3.0484701589       -5.0144902957
 H         -7.6910040184       -1.6196815128       -4.4540980374
 O          2.4265687670       -4.7487690292       -4.5721044779
 H          2.5455250317       -4.5748120271       -3.6089956664
 H          2.3833111696       -3.8721657071       -4.9939570605
 O         -3.9571470933       -5.5722098001        0.6579146927
 H         -3.5467200492       -5.7594854821       -0.2092938233
 H         -3.5434620888       -6.2210771669        1.2647414956
 O         -7.9407900196       -2.8922182742       -1.5824664540
 H         -7.9544073409       -2.0829103654       -2.1297943124
 H         -8.8852871861       -3.0951352778       -1.4512200690
 O         -7.8324128421        4.1713386683       -3.0437338757
 H         -7.1561129150        4.6716454108       -2.5405845975
 H         -8.6341876544        4.2964109385       -2.5222889850
 O          0.7595814310        3.5101155240       -5.2325986647
 H          0.2297235043        4.0671134876       -4.6301397480
 H          0.6297013649        2.5726037790       -4.9630607496
 O          5.2439284145        3.2807105246       -4.5218295046
 H          5.3176604339        2.6379228750       -3.7831618039
 H          4.8567711225        2.7911157936       -5.2607027929
 O         -3.3573309571       -3.5190133068        4.3131203419
 H         -2.8501860713       -2.8235381072        4.7832376742
 H         -4.2075865125       -3.5911834702        4.7927169585
 O          8.1232539293       -3.2043131750       -3.1356986342
 H          8.8352794307       -2.7524500906       -2.6475281665
 H          7.9771824537       -4.0492375510       -2.6808570752
 O         -0.4856439561        6.0140627601        4.7699716645
 H         -0.9982650260        6.1480216655        3.9521204088
 H         -0.8456679762        5.2155798085        5.1714375043
 O          8.0934290834       -0.0275565281       -0.1872682701
 H          8.5938160200        0.1520695313        0.6339018350
 H          7.4148807419        0.6782937708       -0.1910319348
 O          5.5783956096        4.9242807551       -2.0486191085
 H          5.3535493703        4.6734264275       -2.9491406584
 H          4.9537814093        4.4573518121       -1.4536072030
 O          7.3210543774       -5.4153256890       -1.7555949804
 H          7.3965290222       -5.2597846786       -0.7926002400
 H          6.6743544973       -6.1211264267       -1.8730058941
 O         -3.5501834550       -2.3639300066       -4.6828700748
 H         -4.1795170652       -2.1880157294       -5.4282366246
 H         -3.6609906854       -1.6010529453       -4.0962465543
 O          9.5682844771       -1.2345126075       -2.0676172668
 H          9.6368544282       -0.6835334824       -2.8631526349
 H          9.0930207495       -0.7445039088       -1.3706168269
 O          7.3950137022       -1.1824171034        3.0777217036
 H          8.1975716153       -1.4095884494        2.5728063766
 H          6.8938943685       -2.0163173380        3.1742082635
 O          8.1507989845        1.5282074105       -2.5362792021
 H          8.1029224882        2.4364986380       -2.1622408572
 H          8.1815950072        1.6566483745       -3.5069554193
 O          7.8176224553        1.8591272740       -5.1651853470
 H          7.4873822072        2.7505035196       -5.3001311541
 H          7.0248948683        1.2688255541       -5.2549974431
 O         -9.5096655511       -1.5763559771        0.8830248076
 H         -9.6251626529       -2.5164920970        0.6594933704
 H         -8.5381763836       -1.4507377065        0.8592990435
 O         -7.6368451882       -4.4074663257       -3.8824405440
 H         -6.9442823904       -5.0713889633       -3.8100465784
 H         -7.7084049223       -3.9899843361       -3.0062176810
 O         -0.4240298333       -0.2278714240       -6.4517904587
 H         -0.0416904766        0.1295631033       -5.6216167696
 H          0.2788585097       -0.1324587148       -7.1022146319
 O         -5.8297212315       -3.3852249567        5.3404741473
 H         -6.2510194577       -2.7279605116        4.7329001079
 H         -6.1841389408       -4.2348503978        5.0622697835
 O          3.2570570700        2.0680385473       -6.0100813170
 H          2.9455982918        1.2785907531       -6.4993876803
 H          2.5348213327        2.7001480162       -6.0676940274
 O         -1.4522982764       -5.3718733713        4.0881857894
 H         -1.0967570550       -5.1868308018        3.2082106137
 H         -2.2122211541       -4.7626929621        4.1965809294
 O         -2.4259708049       -5.8123253582       -1.5282051505
 H         -1.7051541214       -5.1773487370       -1.3544272507
 H         -2.7768497228       -5.5253567294       -2.3925297313
 O         -5.2212506123        1.2888501006       -5.8065454432
 H         -5.4002993575        2.1837780835       -5.4487750272
 H         -4.3060435804        1.3348273488       -6.1413535404
 O          6.3745927319       -3.3360789763       -5.2154481514
 H          7.1546295889       -3.2925621990       -4.6416024442
 H          5.9646043865       -4.2029742453       -5.0025337233
 O         -3.6965779248        6.4071594224       -2.6593083713
 H         -3.0351386548        6.0399111511       -2.0520101610
 H         -4.5693301257        6.1476626885       -2.3209867137
 O         -8.1560507404       -0.7200273729       -3.1020705203
 H         -9.1274265318       -0.6365772706       -3.1287446390
 H         -7.7628556289        0.1764474270       -3.1472757143
 O          5.0466013848       -5.4668176092       -4.3394736729
 H          5.0190391290       -5.8385313407       -3.4472867635
 H          4.1175614463       -5.3627348571       -4.6044399172
 O         -9.2941055454        4.2094734448       -0.6643095051
 H         -9.8765387032        4.3009214848        0.1103910201
 H         -8.4140480128        4.0801207335       -0.2490911837
 O          7.9658243769        3.9767126701       -1.5574499591
 H          7.9799328571        4.0039996041       -0.5911075185
 H          7.1131157708        4.3926143918       -1.8325018308
 O         10.6004031731        1.5821338350       -1.3187795767
 H          9.7158585710        1.3805995452       -1.6801657180
 H         10.8101668608        2.4766624589       -1.6622383606
 O          2.3377465673       -0.1910293674       -7.1274168904
 H          3.0803990597       -0.4678283477       -7.6667631795
 H          2.2624452511       -0.8700389612       -6.4192016206
 O          7.9104843536        3.9706884443        1.2222093154
 H          8.8648855745        3.7332886836        1.2480953869
 H          7.6447968476        4.0491385020        2.1638978344
 O         10.3678135997        2.9497611870        1.1553930751
 H         10.5990389829        2.6152776037        0.2767556449
 H          9.8949329546        2.1868839468        1.5739499981
 O          9.6460483659       -0.1414306459       -4.5876309876
 H          9.4428819621       -0.9066240809       -5.1272477039
 H          9.1667990095        0.6092269235       -4.9674358710
 O          3.5653070390        3.6813993019        4.9486635437
 H          3.8173896969        3.4744866114        4.0232648206
 H          4.2973338663        3.3458135719        5.4790706588
 O          1.3530651727       -5.9485527430       -0.5669048019
 H          1.8850459901       -6.5376790678        0.0101928126
 H          0.8760120953       -6.4923531463       -1.2322615271
 O          1.2133292069        2.4657937670        5.3328068374
 H          2.0170623200        3.0202714348        5.3738937385
 H          0.4450263316        3.0346667297        5.1556778711
 O          5.3410268562        5.8597991000        2.6790146918
 H          5.7771190006        6.1278634336        1.8455460793
 H          4.5793004772        6.4826883716        2.7608965002
 O          6.1114894373       -3.4978405357        3.5802840633
 H          5.9986593159       -3.3033145276        4.5392716641
 H          5.2141618478       -3.3680797980        3.2049501470
 O         -6.1642768983        6.0158459423        1.4085030070
 H         -6.2616451584        5.9662148003        2.3812421579
 H         -5.2693810125        6.3459475644        1.2553842601
 O         -1.4611913548        3.7891262045       -6.8959665006
 H         -0.5890629498        3.7679572224       -6.4675980697
 H         -1.9761417385        4.4748488616       -6.4567316000
 O         -3.9664360885        4.1232090837        5.0422786627
 H         -3.0025080200        4.0616740648        5.1377956724
 H         -4.3379960462        3.3842047863        5.5444761347
 O          3.1605708996        7.3117586308        2.4741246090
 H          2.5544266137        6.7016070172        2.9322863368
 H          3.0888063422        7.0874627876        1.5337037157
 O        -11.2016732564        0.0989699208       -0.3355157961
 H        -10.5149233232       -0.5210259087        0.0008772001
 H        -10.7019827612        0.8360263775       -0.7480863913
 O          9.5492838642       -2.0155875575        1.7012752756
 H         10.2075338574       -1.3483414095        1.4305173509
 H          9.4306941431       -2.5723997049        0.9060036578
 O          5.8277566784        2.1689364533        5.4579719962
 H          6.6666918225        1.9066014438        5.8535543926
 H          5.3295941270        1.3369452703        5.3267249589
 O          7.1262997738       -0.4606411107        5.6434085807
 H          7.2905433592       -0.6519887151        4.6950080437
 H          7.9637608091       -0.1716772752        6.0039825984
 O         -4.6664399711       -1.1497155561        6.4856056181
 H         -5.2043699227       -1.9497535500        6.4125438118
 H         -3.7641729788       -1.4437452783        6.6638461003
 O         11.3437104940       -0.3230892910        0.5786932454
 H         11.0552170772        0.3472003072       -0.0600073843
 H         11.7341188343       -1.0399248175        0.0334228784
 O          7.1699643368        4.2244058617        3.8026483040
 H          6.7008995008        3.6540148257        4.4252530505
 H          6.6011239951        4.9985503506        3.6569288761
 O         -8.3127650011        3.4851785713        3.9108747773
 H         -7.6200816821        2.8015893620        3.7679184339
 H         -8.8476190280        3.1554234236        4.6331172581
 O         -5.2341539798       -1.5699662572       -6.4900836570
 H         -6.1042220263       -1.8472793634       -6.1211619005
 H         -5.2613314094       -0.6102364279       -6.5433703160
 O         -9.6281845077        1.7837208370       -1.5862638546
 H         -9.6552404321        1.8123558620       -2.5643535934
 H         -9.5643914776        2.7123700587       -1.2549796252
 O          4.7534800769       -6.4711420653       -1.7102820818
 H          4.6764345275       -5.9656239829       -0.8682636514
 H          4.2046080215       -7.2480096696       -1.6110276952
 O          1.8316920383        6.1327686400       -2.4594780515
 H          2.3645133903        5.4499661550       -2.9118392336
 H          1.0154780181        6.1860981944       -2.9756365987
 O         -6.5137567776       -5.1192767276        3.1956539104
 H         -6.6407950108       -5.8517907152        2.5920536713
 H         -5.9468414540       -4.4854206191        2.7170120529
 O        -11.1445873303        1.2556014678        2.1130332634
 H        -11.2222601099        0.5228357533        2.7338433117
 H        -11.3692987428        0.8919553047        1.2332862664
 O          6.5633819029        6.2636236704        0.3215008625
 H          7.1910773167        5.5593527430        0.5361599132
 H          6.1632467426        6.0533338604       -0.5291693160
 O        -10.2374029159        3.9485633595        1.8605186931
 H        -10.8040608731        3.1868006562        2.0252644844
 H         -9.5629139586        3.9372207363        2.5568049050
 O         -1.1934844262       -2.7727655188       -5.8314043282
 H         -2.1172432307       -2.6379395224       -5.5257434079
 H         -0.9553299983       -1.9589711411       -6.3073608192
 O         10.6424522259        4.1651847303       -1.8386647197
 H          9.6788340734        4.2821830989       -1.9137212261
 H         10.9123681979        4.6286246646       -1.0443953770
 O         -0.1062996456        0.8153493731        7.0332424434
 H         -1.0143315959        0.9717391431        6.7579761357
 H          0.4380379046        1.4969015761        6.6015449417
 O          5.6280889706       -2.6599945954        6.0490868131
 H          4.7274275341       -2.3151948017        6.0262912644
 H          6.2050117401       -1.8714251252        6.0646514662
 O         10.3611930382       -0.0216461825        4.1338333842
 H         11.1338018158        0.4411930049        3.7171820638
 H         10.5498554575       -0.9598949253        4.0918635000
 O         -0.1561206886       -7.0836327163       -2.4366186817
 H         -1.0394033241       -6.9330662625       -2.0588406427
 H         -0.1288092122       -6.5552568460       -3.2425472561
 O         11.8929892918       -2.1937524138       -1.2346425164
 H         11.0502752946       -1.8593238172       -1.6199754477
 H         12.5592993180       -1.8063964153       -1.8114369938
 O          9.6144961714       -3.6629524349       -0.4465700306
 H         10.5260161382       -3.4677200276       -0.6979322402
 H          9.5578965936       -4.6003934355       -0.2568199422
 O         -6.3352297142        5.4447179476        4.0070723323
 H         -5.5909378723        5.0861535862        4.5017612680
 H         -7.0751334059        4.8209577761        4.0848649318
 O         -9.1575909445       -4.3078021920        0.6565515947
 H         -8.2309456929       -4.5498621905        0.4555907445
 H         -9.7025669962       -4.6695534803       -0.0443399426
 O        -10.5589392761       -1.3274811902        3.2916777315
 H        -10.1353809271       -1.3828868265        2.4010291212
 H        -10.2922325950       -2.1422466920        3.7283715656
 O         -5.3539276762       -5.9522163520       -3.2439741868
 H         -4.5493724456       -5.7947670618       -3.7656694788
 H         -5.1773423031       -6.6843431789       -2.6521428872
 O        -10.6296125494       -3.1380309741       -1.4720147259
 H        -10.8529047662       -2.5737004357       -2.2191808867
 H        -11.2849937904       -2.9528937354       -0.7772735141
 O          4.8373956394       -1.7288952510       -6.7893442149
 H          5.5408911748       -2.3480700266       -6.5423374154
 H          4.0179716529       -2.1646067135       -6.5351204524
 O         12.1078606374       -0.0672747751       -3.0006784611
 H         11.5209611635       -0.0576075351       -3.7624030950
 H         11.7398189990        0.5785504798       -2.3789651115
 O         -8.7745683339       -3.6013902723        3.2468436214
 H         -9.0824519533       -3.8323269322        2.3562581837
 H         -8.0730412947       -4.2536522230        3.4225240281
 O         -2.3510630427       -7.1337038386        2.0823545585
 H         -1.5682310569       -6.7143181470        1.6857206943
 H         -2.2878564600       -6.9376205188        3.0242506876
 O         -9.7059548887        1.8066448259       -4.2445566938
 H         -9.0793112115        1.3101811526       -4.8237864761
 H         -9.6453243175        2.7180345421       -4.5313798735
 O          3.4080169840       -4.7286108581        5.7924921881
 H          4.2307152793       -4.4920279933        6.2278247808
 H          3.6885094000       -5.2562533210        5.0210969587
 O          4.6750022422       -5.9556862827        3.7294923517
 H          5.3904866223       -5.3508663309        3.4921264274
 H          4.4728803394       -6.4949854756        2.9625731381
 O         12.1272850549        1.2210109651        2.6473998358
 H         12.0434706255        0.6120813349        1.8892047798
 H         11.7978573137        2.0710658594        2.3286056941
 O        -10.8636106138       -0.6377088181       -3.0081278491
 H        -11.1751766017       -0.3669296074       -2.1266798401
 H        -10.9990132293        0.1083748398       -3.5991630326
 O         -7.9964280607        0.6036449405       -5.8817251837
 H         -7.0669047980        0.8628288245       -5.8566146387
 H         -8.0132152993       -0.3616090208       -5.9162401948
 O          8.7077672467       -4.3488456848        3.0049655988
 H          9.1641413864       -3.5354390336        2.7451050274
 H          7.9028108899       -4.0825896172        3.4699231926
 O        -12.2665664285       -2.3331426748        0.6147133843
 H        -12.3474500829       -1.4198320501        0.3178541236
 H        -12.0061152765       -2.2983234107        1.5389998512
 O          8.5474548538        1.9077265012        5.0196140845
 H          9.2899283877        1.3204493735        4.8278100337
 H          8.7709837965        2.7762778636        4.6787511944
