  102

 H         -0.5425054112       -1.1597996585        0.9180873603
 C         -0.6112510051       -0.5412956740        0.0100749183
 H         -0.5391308396       -1.1969144470       -0.8712436602
 C          0.5103658647        0.5037878336       -0.0094871839
 H          0.3911098457        1.1518924073        0.8600966289
 H          0.3944399221        1.1152669956       -0.9056411629
 O         -1.7891825170        0.2100258093       -0.0077307040
 H         -2.5646581753       -0.3620747641        0.0026734602
 N          1.8637421187       -0.1172780949        0.0059475209
 H          1.9871272141       -0.7237037740       -0.8163106223
 H          1.9839787968       -0.6890763206        0.8531041602
 H          2.5930828886        0.6072400317       -0.0077051379
 O          1.8152092937       -1.9484469818       -1.9660486493
 H          2.6606083118       -2.1036943529       -2.4062707372
 H          1.2089542807       -1.5237142869       -2.6118082163
 O          1.6250193031       -1.6595582602        2.2619408529
 H          0.7510175290       -1.6562928811        2.7112751232
 H          1.6896486315       -2.4969800274        1.7610809505
 O          2.2945208260        1.1959461761       -4.0081087168
 H          2.7658007657        1.5182321319       -4.7744996269
 H          1.7362036716        1.9669629577       -3.6794432481
 O          0.8069782873        3.0817349766       -3.0774370642
 H         -0.0683621540        2.7123712958       -2.8855045956
 H          1.2047956213        3.3046433733       -2.2147591755
 O         -1.3804338118        1.4549334501       -2.4630309947
 H         -1.6888174626        1.3367578251       -1.5483910653
 H         -2.1296238399        1.2114325962       -3.0312369863
 O          0.2251078370       -0.4713625384       -3.5064075252
 H          0.9544593018        0.0175259843       -3.9255140244
 H         -0.3178417644        0.2251715571       -3.0780955782
 O         -3.7428948173       -1.4203441090       -0.9469393040
 H         -3.2062593457       -1.7678869556       -1.6747097547
 H         -4.1242486545       -0.5719967893       -1.2593905206
 O         -0.8765461891       -1.6331396123        3.2119161424
 H         -1.3983083176       -2.2721847223        2.7025435499
 H         -1.3558136467       -0.7903107301        3.1687745397
 O         -2.3937593529       -3.1451263547        1.3689607213
 H         -3.0196140917       -2.3873752771        1.3724511836
 H         -2.9159248850       -3.9280683174        1.5491267314
 O         -3.3186609123        0.1390883921       -3.8670250139
 H         -2.9652876767       -0.7349076353       -3.6220958601
 H         -3.3715778806        0.1525658878       -4.8219694342
 O         -1.9625726099       -2.1224494482       -3.0227794736
 H         -1.1583357888       -1.7015185258       -3.3619943712
 H         -1.6380962436       -2.8102232073       -2.4146146728
 O         -0.9460476388       -3.5779861725       -0.9470580158
 H         -0.1309625888       -4.0022305701       -0.6715282512
 H         -1.4688202604       -3.4370201103       -0.1381851433
 O          3.8199590695        0.5751653035       -1.8819386353
 H          4.1282918919       -0.3286836526       -2.0732504051
 H          3.3048963675        0.8623089534       -2.6604119283
 O          1.7421067541        3.3498519685       -0.5637702604
 H          0.9286938307        3.5529762320       -0.0756341474
 H          2.3614539184        2.9538755046        0.0612452286
 O          4.6792919082       -2.0411828231        0.5807729347
 H          5.5942949787       -1.7396156815        0.4267492720
 H          4.3691369098       -1.4763907152        1.3072555085
 O          3.8968290197       -0.3893446653        2.7172669817
 H          4.3163193052       -0.4982494310        3.5711481734
 H          3.0265418269       -0.8389389160        2.7680124229
 O         -2.0378250928        0.8835428651        2.6441903515
 H         -2.9198001184        1.2632240834        2.7602131187
 H         -1.9766788289        0.7125149760        1.6828178220
 O         -4.6415299417        1.0274439800       -1.6002781106
 H         -4.4419069532        1.0225901577       -2.5439759115
 H         -4.0533794273        1.6885639598       -1.1837405249
 O          2.0890743909       -3.4680251581        0.3282399765
 H          3.0483601434       -3.4377429476        0.4174823734
 H          1.8938668791       -3.0487225458       -0.5252439984
 O          3.5527662816        1.7684428814        0.9845000931
 H          3.6959964646        1.1901512199        1.7486407837
 H          4.4235577079        1.8825597936        0.5714088241
 O         -4.5267614463        2.0868434918        2.1958922136
 H         -5.1259453219        1.4633749456        1.7467490808
 H         -5.0822526843        2.7657534046        2.5806804826
 O          0.1283609299        2.3795515767        2.8773224386
 H         -0.6584738054        1.7891433860        2.9300173915
 H          0.3546764107        2.6283981841        3.7730268478
 O          5.8149345209        1.6987594378       -0.5989120976
 H          5.0957078038        1.3411025896       -1.1777052836
 H          6.1888348258        2.4551079447       -1.0519083501
 O          6.9586160487       -0.7589313402       -0.1139029871
 H          6.6217357870        0.1451689312       -0.2596687890
 H          7.7883021113       -0.6729717831        0.3560379483
 O         -0.6602714902        3.8098096985        0.7683679345
 H         -0.3708019991        3.3510275473        1.5877459468
 H         -0.7629189023        4.7379142428        0.9825225627
 O         -3.0629487194        2.6666076927       -0.1511406883
 H         -3.5015789415        2.5558189629        0.7057401816
 H         -2.1975423300        3.0617349587        0.0351786964
 O         -5.9865741011        0.3040341477        0.6920013569
 H         -5.7295349266        0.6458758715       -0.1785459972
 H         -6.3687255341       -0.5766063562        0.5250128635
 O         -3.9310872931       -1.0366395086        1.9173187559
 H         -4.6309844255       -0.5967419785        1.3987863627
 H         -4.3134032969       -1.2267544311        2.7745276758
 O         -6.1197526808       -2.3161962758        0.0300514697
 H         -5.2208717977       -2.1780099467       -0.3281072980
 H         -6.6060831125       -2.8266332595       -0.6172478367
 O          4.5386968559       -2.0310160941       -2.1167763836
 H          5.4227989385       -2.2573363545       -2.4078551377
 H          4.5454920447       -2.1191675367       -1.1397662297
