  20
 
 H         -0.6929680000        2.1688070000       -0.2660420000
 C         -0.2284710000        1.2745760000        0.1527930000
 C          1.8568180000        0.0568690000        0.2847790000
 C          1.2028160000       -1.2265860000       -0.2089330000
 C         -1.0102810000        0.0612410000       -0.3528000000
 H          1.8663480000        0.0624320000        1.3904720000
 H          1.2586990000       -1.2996680000       -1.2947160000
 H         -0.9259440000        0.0136640000       -1.4401520000
 H         -0.3316860000        1.3362270000        1.2528090000
 H          2.8959950000        0.0565670000       -0.0483060000
 H          1.6279970000       -2.1209910000        0.2474870000
 N          1.1512740000        1.1861660000       -0.2975670000
 H          1.6501090000        2.0564210000       -0.1611000000
 C         -2.4619350000        0.0042130000        0.0958770000
 H         -2.9939810000        0.8687980000       -0.3049850000
 H         -2.5561480000        0.0339360000        1.1851890000
 H         -2.9696030000       -0.8887590000       -0.2780490000
 N         -0.2750580000       -1.1930980000        0.1462970000
 H         -0.3735790000       -1.2347150000        1.1661180000
 H         -0.7424250000       -2.0260790000       -0.2201350000
