  132

 H         -0.5425054112       -1.1597996586        0.9180873602
 C         -0.6112510051       -0.5412956740        0.0100749183
 H         -0.5391308395       -1.1969144470       -0.8712436602
 C          0.5103658647        0.5037878336       -0.0094871839
 H          0.3911098457        1.1518924074        0.8600966289
 H          0.3944399221        1.1152669956       -0.9056411630
 O         -1.7891825170        0.2100258093       -0.0077307041
 H         -2.5646581753       -0.3620747641        0.0026734603
 N          1.8637421187       -0.1172780949        0.0059475210
 H          1.9871272141       -0.7237037740       -0.8163106225
 H          1.9839787968       -0.6890763207        0.8531041602
 H          2.5930828886        0.6072400317       -0.0077051379
 O          0.5096201909       -0.3250421979       -3.5447707961
 H          1.1743881327       -0.7814253235       -3.0210699507
 H         -0.3518854080       -0.7035453663       -3.3138191060
 O          0.4954877055        0.5769967150        3.7098513969
 H         -0.4122699868        0.8017629474        3.4352181639
 H          0.4901241339        0.5378220734        4.6669216350
 O          3.1784891443        2.2048428322        0.2821403484
 H          2.6033411687        2.4948339930        1.0135301162
 H          2.8593575920        2.7212686134       -0.4975657778
 O         -1.8165850221        2.1698016328       -1.8901651512
 H         -1.8141545485        1.4749274398       -1.1978330989
 H         -2.5769036117        1.9864942102       -2.4470656187
 O         -3.8955594497       -1.3446617161        0.6320976834
 H         -3.3407053195       -1.6283132270        1.3865016632
 H         -3.8659326158       -2.0723833830       -0.0016960249
 O         -2.1111082564        0.8873110889        2.9697805662
 H         -2.0998878558        1.4319155169        2.1555393135
 H         -3.0289999126        0.9402258398        3.2802710214
 O          4.9036862441       -0.3377820941       -0.8612124027
 H          4.2497739433       -0.0634162051       -1.5423291154
 H          5.3233148443        0.4859941207       -0.5512049561
 O          2.1879104151        3.6428863002       -1.7114747805
 H          2.9603225769        3.9175311289       -2.2138477263
 H          1.6269768249        3.1280668747       -2.3498729641
 O         -1.8768966506       -1.6307269910       -2.7934704492
 H         -2.5786904018       -0.9707190455       -2.8781407063
 H         -2.1076731635       -2.1827366251       -2.0179888624
 O          0.5442876509        2.3623773540       -3.2952341264
 H          0.6745436150        1.4194499761       -3.5074014921
 H         -0.3563583895        2.4143740405       -2.9395491259
 O         -4.0560227506        0.1882031903       -2.5691709020
 H         -4.1353494333        0.6385557228       -1.6958311714
 H         -4.9295719965        0.3280902254       -2.9715864900
 O         -4.3984267970        1.2521840029       -0.1491986274
 H         -4.3164459154        0.3784904768        0.2737611649
 H         -3.6737354967        1.8001955841        0.2113661375
 O         -2.5143949957        2.7653492780        1.0813662976
 H         -3.1542337002        3.2558218874        1.6410842516
 H         -1.8738281620        3.3935302088        0.7361345655
 O         -0.2433306822        3.9267515313       -0.3417921981
 H          0.5671911961        4.1263489806       -0.8336979770
 H         -0.7969022851        3.4234662478       -0.9594955555
 O          1.3896940752       -1.6074370684        2.3184684988
 H          2.0956692465       -1.9475265943        2.8967716549
 H          0.9499705005       -0.9119047845        2.8369881125
 O          2.2043621876       -2.1342884854       -1.8894394063
 H          2.5533431588       -2.7244538043       -1.1908081417
 H          1.5123165690       -2.6597169054       -2.3469431707
 O          0.2367387756       -3.5657241772        0.6696355640
 H          0.4473649699       -2.9696844405        1.4040327194
 H          1.0963343618       -3.8601596525        0.3477996653
 O          3.9203769549       -1.3076156411        1.3340745324
 H          4.7039243268       -1.5336156154        1.8905697663
 H          4.3025894660       -0.9611908366        0.4909853080
 O          3.3056967859        0.7207726103        3.0581909088
 H          3.3761152274        0.0058184726        2.3925085152
 H          2.3724090978        0.9559025675        3.1263503060
 O          5.8344251648        1.9711312592        0.2920842175
 H          6.0413305822        1.7141631514        1.2084424935
 H          4.8784253429        2.1946549787        0.3169618957
 O         -4.8592228267        0.9801380207        3.4441702907
 H         -5.3328251046        0.7649240275        4.2474523090
 H         -5.5071014451        0.8575532592        2.7013840339
 O         -6.5607870284        0.9396419982        1.4230310180
 H         -6.8389776797        0.1107751202        1.0070782349
 H         -5.9594294452        1.3346664455        0.7665777435
 O         -2.1568671861       -3.2576759193       -0.6289423398
 H         -1.3205792258       -3.3443792304       -0.1272909659
 H         -2.4263808173       -4.1517072424       -0.8410853705
 O          3.0456729149        0.7742260321       -2.4081708426
 H          3.5282010877        1.6248390268       -2.4352092167
 H          3.0578734669        0.4435155577       -3.3088996531
 O          3.0604409685       -3.5640086945        0.2105917775
 H          3.3298387230       -2.7901669187        0.7617486911
 H          3.7724798944       -4.2014761145        0.2660503573
 O          1.1133983034        3.0284135998        1.8345861585
 H          0.5735210164        3.3747905848        1.0931508862
 H          1.1032749768        3.6987197281        2.5171960575
 O         -6.9554084628       -1.1791486401       -0.3898976784
 H         -7.6340510060       -1.8513594161       -0.3181683753
 H         -6.1427409307       -1.6303988104       -0.7037523116
 O         -2.1316451316       -1.7761984838        2.6158785991
 H         -2.0441646023       -0.8104024846        2.7690574114
 H         -2.3080879131       -2.1886132629        3.4605755438
 O         -4.8896745349       -2.2761933167       -1.7868000405
 H         -4.5469656925       -1.4123464002       -2.1090662232
 H         -5.2160546697       -2.7403590900       -2.5582062049
 O          7.0404235572       -1.7927722479        0.1323243074
 H          6.2683080479       -1.5051396917       -0.3778908451
 H          7.7424645459       -1.1997312263       -0.1559640377
 O          4.8263329674        2.8106467008       -2.4549731879
 H          5.3177669303        3.0001122524       -1.6518834303
 H          5.3719974696        2.1532944834       -2.9440127058
 O          6.1439255153       -1.6261140436        2.6878531614
 H          6.3173296434       -0.6904243422        2.8716920582
 H          6.6500189846       -1.8314913408        1.8756919533
 O          5.9425619383        1.1810014815        2.9012191215
 H          6.2783989419        1.7560706329        3.5879187895
 H          4.9716994316        1.1321193944        3.0210439388
 O         -6.7525752347        0.3311377115       -2.7310531335
 H         -6.9310674107       -0.1101975610       -1.8814158416
 H         -7.3345366438        1.0895943065       -2.7756159006
 O         -4.5143201621        3.5842841621        2.6284701610
 H         -5.3350445413        3.7839337750        2.1750693396
 H         -4.6433442073        2.7167329930        3.0558428002
 O          7.8634614154        0.6404791211       -1.0911540427
 H          8.6426407960        1.1466510294       -1.3207082906
 H          7.2760316123        1.2328744733       -0.5948939207
 O          6.1534420371        0.6791512743       -3.3584809143
 H          6.7791436865        0.4413258668       -2.6576946668
 H          5.5667707807       -0.0821579404       -3.4805555429
 O          4.2996405927       -1.4850234725       -3.5757971272
 H          4.7100701651       -2.2887768226       -3.8933831496
 H          3.5873939005       -1.7489964843       -2.9634475231
 O          0.2757855064       -3.3313600935       -3.3156931941
 H          0.4805136186       -3.3105019677       -4.2517192119
 H         -0.5559057470       -2.8441645034       -3.2100762156
 O          3.4534029462       -1.9265373624        4.1278657768
 H          4.3400895937       -2.2524549849        3.9475014142
 H          3.5312812058       -0.9648482403        4.1870761001
