  101

 H          0.4630927076        1.1941025328        0.8323452958
 C          0.5529035761        0.5095402430       -0.0251092077
 H          0.4633421182        1.0989800596       -0.9466436098
 C         -0.5779259333       -0.5149488604        0.0205351874
 H         -0.4518492549       -1.1270258237        0.9278134321
 H         -0.4840892691       -1.1748678656       -0.8448928486
 N         -1.8603253885        0.1647702475       -0.0623309409
 H         -2.6131021662       -0.5138473280       -0.0751527666
 H         -1.9956541839        0.7570092262        0.7508171932
 O          1.7808081027       -0.1833448059        0.0209869107
 H          2.5006908393        0.4507195084       -0.0567171281
 O         -1.7301286997        2.4891459808       -1.3792762475
 H         -1.2462887081        2.3819619664       -2.2258082283
 H         -1.8082742255        1.5638963786       -1.0196604678
 O          4.4037073131       -1.4480358646       -1.0716915090
 H          5.2795367463       -1.1334330156       -0.8112681625
 H          4.0112786430       -0.7210342664       -1.5903758517
 O          3.6920870635        1.6254166413        0.3299448296
 H          4.3318417830        1.8770032469       -0.3699616953
 H          4.1944985695        1.0839879178        0.9729807769
 O          4.8852125000       -0.0543142904        2.0847401208
 H          4.3428893911       -0.8599757576        1.9806819608
 H          4.4818859079        0.4385772935        2.8352076458
 O         -3.6506219654        2.9631190675        0.6974261652
 H         -2.9749862548        3.0271566421        0.0084968785
 H         -3.2418110364        2.5080668053        1.4464347130
 O         -4.5456462553       -0.6751687312        1.7851188540
 H         -4.6918664896       -0.1127613996        0.9959168238
 H         -3.9947708046       -0.1419639700        2.3652402795
 O         -2.2952609480        1.1759809219        2.6241751171
 H         -1.5559675425        1.7157068598        2.9665005729
 H         -2.0350500260        0.2734804192        2.8769799340
 O          0.0874989296        2.0665241160        3.4963290958
 H          0.4728653684        1.1960030229        3.6444349867
 H          0.7410448811        2.5592026539        2.9712635175
 O          3.3193921305        1.2778110736        3.7631041751
 H          2.9756140570        2.0789803342        3.3512421217
 H          2.5812775252        0.6512610190        3.7950424293
 O          0.1950875668        3.8267414051       -0.2059857683
 H         -0.0909732270        4.7403377525       -0.2040945935
 H         -0.5640117146        3.3047796268       -0.5946092355
 O          1.9964502029        3.1330005047        1.8262257220
 H          2.6393644244        2.6387499888        1.2824068752
 H          1.3517893477        3.4835584183        1.1945795213
 O          3.2147277758        0.5465813949       -2.6026771694
 H          2.8109330135        1.3729009559       -2.2826060833
 H          2.5689524583        0.1711501507       -3.2155689205
 O          0.8309438735       -0.5852798590       -3.6895715216
 H          1.1336025195       -1.2732987041       -3.0718072939
 H         -0.0572115055       -0.9066421604       -3.9563702332
 O          1.8191177742       -2.2534836554       -1.7158409194
 H          2.7535893762       -2.4492475359       -1.8372290516
 H          1.7965637759       -1.4596642838       -1.1372081582
 O         -1.6566815979       -1.5529743806       -3.8042645969
 H         -1.5707943843       -2.2412659785       -3.1242228728
 H         -2.2033879077       -0.8561987763       -3.4125338220
 O         -3.4968331797       -2.5295708383        0.1402064571
 H         -3.9031096014       -1.9803170227        0.8436205324
 H         -4.0745899630       -2.4277267541       -0.6366417449
 O         -1.3574119944       -1.3571028278        3.3802795112
 H         -1.4196816339       -2.1593865242        2.7906519161
 H         -1.7445532072       -1.6165599180        4.2166104779
 O         -1.4685967415       -3.4558013032        1.8312681121
 H         -2.2048393698       -3.3131159801        1.2192110509
 H         -0.6686083768       -3.5998880975        1.2932386115
 O          0.8577384331       -3.6913584639        0.3713718062
 H          1.6043943175       -3.5326385818        0.9599586865
 H          1.1142208885       -3.2675435330       -0.4720007277
 O          3.1353956358       -2.0632991974        1.3395677248
 H          3.6723595911       -2.1360832150        0.5313828619
 H          2.4621119159       -1.4018712668        1.0926522242
 O         -0.0370690173        2.0163242946       -3.3986613617
 H          0.2273102043        1.0887907072       -3.5465560765
 H          0.7713277070        2.4871022571       -3.1653425247
 O          6.6143900477       -0.0862498584       -0.0055161772
 H          6.1016543746       -0.0242270418        0.8252705459
 H          7.5194084101       -0.2688382075        0.2466553776
 O          1.2702859405       -0.6150969848        3.3989978588
 H          0.3383413464       -0.9095486285        3.4124516699
 H          1.7893686291       -1.3664254118        3.1014870312
 O         -3.4160517848        0.3363291555       -2.7142251820
 H         -3.7608020653        0.5853101360       -1.8282385083
 H         -3.2752449722        1.1542411615       -3.1934470414
 O          2.1762835757        3.0141747563       -1.8980959481
 H          2.9772362880        3.5178194429       -1.7437825265
 H          1.5202239971        3.3103693060       -1.2344705729
 O         -4.7365861424        0.8336423067       -0.4370130540
 H         -4.5950978182        1.7321848195       -0.0689285676
 H         -5.6585152942        0.7064822424       -0.7174451716
 O         -4.7194278815       -2.0405055425       -2.2942970584
 H         -4.2802738875       -1.2083833276       -2.5493031777
 H         -4.3594326712       -2.7116544262       -2.8778270614
 O          5.4802716438        1.9050489381       -1.6302165557
 H          4.9718076312        1.4246406755       -2.2973786824
 H          6.0778946837        1.2607714207       -1.2209138623
 O         -1.5195027571       -3.3112862774       -1.6717415406
 H         -0.8176990161       -3.7892894778       -1.2254151028
 H         -2.1638612036       -3.0580736840       -0.9943202063
 O         -6.8971111352       -0.5858017850       -1.1983464514
 H         -7.1567047551       -1.0715805896       -0.4129710117
 H         -6.2949572922       -1.1671006469       -1.6874151644
