  76

 H         -0.0000000000        0.0000000000        0.0000000000
 O         -0.0293796216       -0.9174437262        0.4327038455
 H          0.6948278358       -1.0488427527        1.1629413419
 H         -0.9841641985       -0.9982225104        0.8354766581
 O         -0.6425524608        1.0837580969       -0.9799292266
 H          0.1207931079        1.3712445621       -1.5161695765
 H         -1.1060601385        0.4000303819       -1.5179538880
 O          1.1725323025        1.5731634749       -2.9275886055
 H          1.5857578094        0.6884497309       -2.9580269146
 H          0.3768157297        1.5303241922       -3.4880268541
 O         -1.5584728919       -0.9492306884       -2.4072929010
 H         -2.3847933806       -1.1767611247       -1.9444963315
 H         -0.9168215812       -1.6688287098       -2.2391905295
 O          1.7186581320       -1.3035493784        2.2236588107
 H          1.2007917750       -1.6417279454        2.9631523727
 H          2.0768643226       -0.4310364666        2.5056459935
 O          2.2469612656       -0.9398219662       -2.8530628979
 H          2.6126012460       -1.0570503906       -1.9460008103
 H          2.9274480264       -1.2267192801       -3.4628137670
 O          0.3342564207       -2.8122683380       -1.9732482696
 H          0.9774940648       -2.2714732994       -2.4552380652
 H          0.7848351593       -3.0481742697       -1.1350861818
 O         -0.4989198870        1.3096064760        2.4358449542
 H         -1.4470972284        1.4914928210        2.4654884132
 H         -0.1344996978        1.9783950021        1.8314942867
 O         -0.6144159817       -1.1883544262        3.5920220337
 H         -1.3041870441       -1.1942793369        4.2549533301
 H         -0.5897654618       -0.2913177239        3.2143058922
 O         -2.4086748482       -0.9741745820        1.2498973639
 H         -2.6915995237       -0.0849901869        1.5353770820
 H         -2.9278341144       -1.1635846082        0.4507116735
 O          3.0394361079       -1.2744375690       -0.3503099852
 H          2.6195206224       -2.0236384248        0.1091670537
 H          3.7630300814       -0.9372050127        0.2147126890
 O          1.5342962894       -3.4615947582        0.3609374327
 H          1.9600073979       -4.3026296251        0.5257285158
 H          0.7610584874       -3.4153374200        0.9820317129
 O          1.8399012625        1.0840361851        0.0861891348
 H          2.1976261086        0.1851510686       -0.0703371352
 H          2.5283393706        1.6761090010       -0.2548223277
 O         -0.6568200957       -3.3783546876        1.8201030172
 H         -1.3482266967       -3.2613571807        1.1475112011
 H         -0.7874270487       -2.6792271174        2.4775714207
 O         -3.1845465243        1.5671172159        1.8675112441
 H         -2.9298102443        2.1621043656        1.1184562709
 H         -4.0863591752        1.7798559031        2.1049374459
 O         -2.1521667557        3.0534674104       -0.0597068244
 H         -1.5396915349        3.6408470478        0.3986741685
 H         -1.5765408237        2.3348789912       -0.4116329971
 O          0.3747144134        3.5525566637        1.0298003151
 H          0.8380810295        3.5169291383        0.1711343821
 H          0.9079137892        4.1028766096        1.6044159154
 O         -3.8570561548       -0.6466877247       -1.0540235579
 H         -4.7269275316       -0.9839844924       -1.2629460702
 H         -3.8150108580        0.2710123313       -1.4148169114
 O         -1.3367181131        1.1995584235       -3.9307777740
 H         -1.4457383600        0.3126356794       -3.5257825936
 H         -1.5702911356        1.1056459384       -4.8521903904
 O          2.3746322095        1.2303694804        2.6769551457
 H          2.1043727382        1.3372742150        1.7313946969
 H          1.6317747414        1.5354378762        3.2027014193
 O         -3.5369687928        1.7672931821       -2.1546494869
 H         -2.8275370588        1.7557918384       -2.8139622904
 H         -3.3039130578        2.4520702872       -1.5162248020
 O         -2.1013923970       -3.2427099138       -0.5603809672
 H         -2.5695489604       -4.0674383303       -0.6879929182
 H         -1.2940607253       -3.2912231637       -1.0916159754
 O          1.5589413213        3.7935017751       -1.4450521108
 H          1.4417334490        3.0087137707       -2.0170769262
 H          1.1147162698        4.5186563629       -1.8854306257
 O          3.9397625794        2.5280229817       -0.8647676629
 H          3.4014569954        3.3142321697       -1.0338838563
 H          4.2177688354        2.1943173049       -1.7194650601
 O          4.6176584012        0.3486424472        1.0930182952
 H          4.1881836082        0.6016045188        1.9183055346
 H          4.6932679237        1.1557042169        0.5726331681
