  222
          0.00000000
 H         -1.9029486031        0.8909128523        1.2561252941
 C         -0.9289560337        0.5312914036        0.8961106889
 H         -0.1922726568        1.3320925482        1.0422347634
 C         -0.9722487504        0.1196428527       -0.5588019621
 H         -1.3180230101        0.9536187603       -1.1825642545
 H         -1.6972440112       -0.6938030258       -0.6886921114
 O         -0.5030064258       -0.5036993245        1.7264619252
 H         -1.1064438263       -1.2779690927        1.6702745233
 N          0.3471485862       -0.3318336872       -1.0413646134
 H          0.2491435431       -0.8220654738       -1.9501753319
 H          0.8269529322       -0.9653530590       -0.3660278777
 H          1.0055842659        0.4499750619       -1.2369539923
 O          2.7794123541       -0.9854638628       -1.4052660562
 H          3.1704865447       -1.8429676626       -1.1624566163
 H          3.3519541721       -0.3243475649       -0.9739264674
 O         -0.4626780745        3.2385887613       -3.2588162278
 H         -0.8267418021        3.9180950257       -2.6630652831
 H          0.4026350293        3.6036326764       -3.5084207862
 O         -2.5065816718        2.4672371033       -0.9630697924
 H         -2.9222236123        3.1358664648       -1.5344220462
 H         -3.2142081272        2.1741041069       -0.3602979924
 O          2.1594040132        0.5605262591        1.8821215709
 H          2.0218341615       -0.3828260538        1.6754155513
 H          2.8901648313        0.8345731063        1.2970041450
 O          0.7414897842       -3.2848597351        4.3350406815
 H          1.1772444300       -3.8939594661        4.9493490233
 H          1.3705964673       -2.5462076640        4.2657098751
 O         -3.5911302662       -1.1609089130       -0.5894419681
 H         -4.4704073128       -1.0571241759       -0.1850409190
 H         -3.7622630407       -1.0738880487       -1.5459489149
 O          0.4347139457        5.3898667591        1.5663831197
 H          0.4654513804        4.5799524175        1.0183597528
 H         -0.5196838812        5.5661631150        1.6201194657
 O          4.2571670473        1.2663344299       -0.0792118192
 H          3.5739790646        1.6493004936       -0.6613001351
 H          4.9848008603        1.9140282697       -0.0995589762
 O         -2.0323985156       -4.2108209250        4.1262824683
 H         -1.9835815851       -5.0225957342        3.6031335016
 H         -1.1059192625       -3.9285021183        4.2452971831
 O          4.2237907507        0.6642822413       -3.5144485250
 H          4.4012985594       -0.2715590648       -3.7158830471
 H          5.0946347725        1.0331972434       -3.2702710503
 O         -2.1501590314       -2.7420786057        1.5643023346
 H         -3.0139755842       -3.1698235472        1.4396700675
 H         -1.5246479594       -3.4628234946        1.7709827404
 O         -3.8934851177       -3.6606882135       -2.7965082977
 H         -4.0364759387       -2.7345351459       -3.0768951619
 H         -4.7162408721       -3.8843596706       -2.3293394658
 O          1.1099820393       -3.9084959191       -1.3634081779
 H          0.1900897843       -3.5905168124       -1.3179193873
 H          1.2442232807       -4.0561078000       -2.3149867649
 O         -4.3651155972        0.6750345587        3.6763874984
 H         -4.0246768111       -0.1691086295        4.0243670922
 H         -5.3329274315        0.5616503704        3.7184606651
 O          2.1334725987        4.4065574189       -3.4810681013
 H          3.1011715841        4.3814752513       -3.5711094266
 H          1.9655852873        5.0158132171       -2.7360016800
 O         -4.6351599693       -4.2170692216        0.9212636934
 H         -5.2146885835       -4.1467352563        0.1399890005
 H         -3.9314711715       -4.8402775074        0.6625768493
 O          2.3413635774       -1.7366182334       -5.2317437635
 H          2.4452109209       -1.0371566638       -5.8922040632
 H          3.2339218573       -1.8653721757       -4.8603343114
 O         -5.9302750057        4.5342105023       -0.9276239876
 H         -6.5803068884        3.8088078066       -0.9758451589
 H         -5.6079895180        4.5057276986       -0.0077854157
 O         -0.9517833248       -0.7797631429        4.8495301081
 H         -1.8642165350       -1.1201166910        4.8050775691
 H         -0.3838986124       -1.5590125100        4.7046421606
 O         -7.3655865836        2.3352086855        2.0146393236
 H         -7.3052573309        1.5019976215        2.5158115798
 H         -7.9928017601        2.8793707124        2.5138263956
 O          1.8665572900       -2.2367596003        0.9843203402
 H          2.6355893307       -2.6644015599        1.4032741327
 H          1.6665042085       -2.8185733614        0.2243017788
 O          6.2221193824       -0.6370490171        0.9821154865
 H          5.5416490632       -0.0160743347        0.6654111735
 H          7.0525170416       -0.1257250496        1.0210694613
 O         -7.2354078575       -0.0692437347        3.5724504055
 H         -8.0463280533       -0.2973088483        4.0459081153
 H         -6.8488380714       -0.9269090897        3.3162433338
 O          4.0124576590       -3.4520626602       -0.6882112780
 H          4.9359521246       -3.4682900649       -0.3817656683
 H          4.0000855899       -3.9607016058       -1.5174062674
 O          5.1737957492        1.0880912381        3.5320342720
 H          4.4284374091        1.2736984838        4.1342855941
 H          5.2683063168        0.1200622466        3.5708350744
 O          0.2389485640        3.0184096745       -0.0435137295
 H         -0.6541689810        2.9446197991       -0.4311279190
 H          0.8608060609        2.7005686855       -0.7233307352
 O         -2.4368103326        5.2798653948        1.3881678845
 H         -2.4192626955        4.4621808247        1.9220695497
 H         -3.3690001600        5.5481656829        1.4087662758
 O          1.2192799438       -4.2491989336       -4.2501246383
 H          1.5844052440       -3.4500202820       -4.6787894854
 H          0.2572881454       -4.1826254171       -4.3894217988
 O          2.1534718160        1.9120379951       -1.9975135482
 H          2.7631962234        1.3873727454       -2.5492278413
 H          2.0999391602        2.7505970915       -2.4894951739
 O         -7.6862954042       -1.7427098346       -2.8587430581
 H         -7.2517024507       -0.8725963453       -2.9298316596
 H         -7.9887260093       -1.9392657733       -3.7561652834
 O         -6.2683839098       -0.7265423271        0.4856794857
 H         -6.1844566879       -1.3158614663        1.2587288025
 H         -7.1991150314       -0.8020268172        0.2180619401
 O          0.0215641379        1.5834916445        3.5524350480
 H          0.7209316124        1.2026426724        2.9865431697
 H         -0.3190918608        0.8083973739        4.0332162587
 O          5.0097996395       -2.1604190288       -4.1707785857
 H          5.6205737672       -1.9270761313       -3.4488490096
 H          5.5955438037       -2.3617344993       -4.9140429835
 O         -2.2711950120       -5.6947146036        0.2628703336
 H         -1.4977165461       -5.4907675480        0.8219585174
 H         -1.9092287275       -6.0899159541       -0.5427195057
 O         -5.8406283902       -2.4616479719        2.8029255690
 H         -5.1196493296       -2.3399612174        3.4495898927
 H         -5.4978151541       -3.1457417649        2.2012528224
 O         -1.5959900499       -3.6758320036       -4.5274953604
 H         -2.3542743255       -3.7824394718       -3.9281886594
 H         -1.9953349086       -3.5254820194       -5.3956058459
 O          7.3342515777        2.6522408181        2.5441912016
 H          7.4518358887        3.3809579416        3.1670806336
 H          6.6175535371        2.1119658945        2.9248373860
 O          6.8064553802       -1.2228663200       -2.2498685081
 H          7.4677263647       -1.4652549016       -1.5791538753
 H          6.8670696741       -0.2515237365       -2.3326843737
 O          6.6038845576       -3.4231416776        0.5475197035
 H          6.5229406862       -2.4641704163        0.7164002021
 H          7.5101099547       -3.5163618424        0.2157303277
 O         -4.4687721055        1.4475600941        0.8421322640
 H         -5.1497846371        0.8029025175        0.5844609748
 H         -4.3587776708        1.2612280789        1.7928700525
 O         -6.4216803496       -3.9336717428       -1.3862769548
 H         -7.1271813438       -4.5809000978       -1.2457795474
 H         -6.8526688867       -3.1902169710       -1.8490201771
 O          5.3022932160       -1.7997292978        3.8656207520
 H          4.9517691489       -2.5002620137        3.2850503902
 H          6.1465211973       -2.1441233477        4.1906345120
 O          4.0330496174        3.4192654026        2.0835723654
 H          4.4186721782        2.6328485913        2.5108571333
 H          3.2446429106        3.6211429326        2.6190584753
 O         -2.5480617471        2.8079709551        2.9551996149
 H         -1.6590484307        2.4755405792        3.1760882567
 H         -3.1447795089        2.1154569302        3.2985707590
 O          8.8895817170        0.7825633968        1.0120820343
 H          8.4121110950        1.4315703973        1.5612481715
 H          9.7639663016        1.1777903407        0.8797831560
 O          4.1730141364        4.7292382778       -0.4404527663
 H          4.0700488943        4.3534443116        0.4546968357
 H          3.3117007344        5.1451102101       -0.6256437797
 O         -4.1447620609       -0.9072895080       -3.4391040518
 H         -4.9297303992       -0.3369179501       -3.3585325841
 H         -3.4109441099       -0.3074591326       -3.6660354192
 O         -1.9112822140        0.8942041902       -3.9399643295
 H         -1.2539636550        0.1744799754       -3.9085608358
 H         -1.4002637359        1.6961880120       -3.7284954117
 O         -9.0023835208       -1.0780921694       -0.3484825324
 H         -9.9553468378       -1.2429709233       -0.3824473498
 H         -8.6586965176       -1.3226020806       -1.2297925742
 O          8.8296985003       -1.8480405742       -0.2515236602
 H          9.7417058651       -2.1683116908       -0.2881313307
 H          8.8793631280       -0.9866578077        0.2047645498
 O         -3.6550592693       -1.9700110829        4.6831153708
 H         -3.9239330431       -2.0841602533        5.6053593966
 H         -3.1397478463       -2.7706330363        4.4716720388
 O          1.6402690642        3.9067770215        3.7022182679
 H          1.2770972452        4.5612059430        3.0814480809
 H          0.9832866781        3.1840978254        3.6712658821
 O          2.5233134480       -1.1426085054        4.4018839424
 H          2.5530053014       -0.1967411699        4.6274846958
 H          3.4535296619       -1.3733044556        4.2261420734
 O          2.3771054564       -5.5342668335        0.5770151174
 H          2.0099630612       -4.9909753204       -0.1454709737
 H          3.0120972616       -6.1139620234        0.1356313580
 O          6.8697296455        1.7181268459       -2.6587007649
 H          7.6836496793        2.0159807592       -3.0906210022
 H          6.8595198802        2.1654783397       -1.7910472177
 O         -6.4341386781        0.8413745402       -3.0210585900
 H         -5.8521261366        1.4682663008       -3.4890477830
 H         -6.8520065415        1.3569390384       -2.3077808189
 O          6.5743527971        3.1102769785       -0.2117373057
 H          6.8598142542        3.0432314514        0.7163959381
 H          5.9171276815        3.8276024266       -0.2336017382
 O         -1.3779311215        5.3443486833       -1.3550814129
 H         -2.1933523089        5.2346952163       -1.8767361242
 H         -1.7021653102        5.3680831881       -0.4343470231
 O         -3.7453820628        4.5386094903       -2.6911550968
 H         -3.9955437758        3.8762803465       -3.3614334849
 H         -4.5431130942        4.6506224983       -2.1446855980
 O         -4.3854914116        2.3053040889       -4.4384582816
 H         -4.4212096758        2.4802743006       -5.3872253803
 H         -3.5302451599        1.8563719049       -4.2993999316
 O          3.8881921777       -4.7142413411       -3.2254423959
 H          2.9853995471       -4.7031665299       -3.5907468924
 H          4.3086561888       -3.9128421133       -3.5970465132
 O         -5.0264381618        4.1571804727        1.8310269137
 H         -4.2738026878        3.6744782465        2.2207238833
 H         -5.7832967861        3.5464584011        1.9267321731
 O         -0.0717930888       -1.3225202626       -3.7170601903
 H         -0.5936240634       -2.1147166622       -3.9420884727
 H          0.7617618531       -1.4174521652       -4.2114794905
 O         -0.0614979319       -4.8294807217        1.9902198319
 H          0.2797846889       -4.3126036985        2.7444865378
 H          0.7456589436       -5.1265064988        1.5352223931
 O         -7.7629788557        2.2459639769       -0.8630407793
 H         -7.6227182141        2.2133187754        0.1022528448
 H         -8.7244891152        2.2788085739       -0.9757918162
 O          4.1826002649       -3.8550128660        2.1764202596
 H          5.0007075012       -3.8096908673        1.6445496859
 H          3.6158328711       -4.4876310893        1.6964517643
 O          1.4836412651        5.8284427719       -1.0007454591
 H          0.5328027125        5.6946726993       -1.1759160357
 H          1.4845924601        6.2233688491       -0.1119561344
 O          4.9745482180        4.0732838798       -3.1754012220
 H          4.7909464033        4.3462444670       -2.2540519037
 H          5.6000957643        3.3290170677       -3.1019537453
 O          2.8623131070        1.6735881832        5.1646444624
 H          2.4870340688        2.4520197581        4.7171557527
 H          2.4939822286        1.7047284654        6.0579682149
 O         -1.5141270348       -2.9426423301       -1.2758244973
 H         -1.8025044975       -2.8416488454       -0.3515621060
 H         -2.3207681635       -3.1940532730       -1.7572797510
