  222
          0.00000000
 H         -1.9029488189        0.8909129533        1.2561254365
 C         -0.9289561390        0.5312914638        0.8961107905
 H         -0.1922726786        1.3320926992        1.0422348816
 C         -0.9722488606        0.1196428663       -0.5588020255
 H         -1.3180231595        0.9536188684       -1.1825643886
 H         -1.6972442036       -0.6938031045       -0.6886921895
 O         -0.5030064828       -0.5036993816        1.7264621210
 H         -1.1064439518       -1.2779692376        1.6702747127
 N          0.3471486256       -0.3318337248       -1.0413647315
 H          0.2491435713       -0.8220655670       -1.9501755530
 H          0.8269530260       -0.9653531685       -0.3660279192
 H          1.0055843799        0.4499751129       -1.2369541326
 O          2.7794126692       -0.9854639745       -1.4052662155
 H          3.1704869042       -1.8429678716       -1.1624567481
 H          3.3519545522       -0.3243476017       -0.9739265778
 O         -0.4626781270        3.2385891285       -3.2588165973
 H         -0.8267418958        3.9180954699       -2.6630655850
 H          0.4026350750        3.6036330850       -3.5084211840
 O         -2.5065819560        2.4672373830       -0.9630699016
 H         -2.9222239436        3.1358668204       -1.5344222202
 H         -3.2142084916        2.1741043534       -0.3602980333
 O          2.1594042580        0.5605263227        1.8821217843
 H          2.0218343907       -0.3828260972        1.6754157413
 H          2.8901651590        0.8345732009        1.2970042921
 O          0.7414898683       -3.2848601075        4.3350411730
 H          1.1772445635       -3.8939599076        4.9493495845
 H          1.3705966227       -2.5462079527        4.2657103588
 O         -3.5911306734       -1.1609090446       -0.5894420349
 H         -4.4704078197       -1.0571242958       -0.1850409400
 H         -3.7622634673       -1.0738881705       -1.5459490902
 O          0.4347139950        5.3898673702        1.5663832973
 H          0.4654514332        4.5799529368        1.0183598683
 H         -0.5196839401        5.5661637461        1.6201196494
 O          4.2571675300        1.2663345735       -0.0792118282
 H          3.5739794698        1.6493006806       -0.6613002101
 H          4.9848014255        1.9140284867       -0.0995589875
 O         -2.0323987460       -4.2108214024        4.1262829362
 H         -1.9835818100       -5.0225963037        3.6031339101
 H         -1.1059193879       -3.9285025637        4.2452976644
 O          4.2237912296        0.6642823166       -3.5144489235
 H          4.4012990584       -0.2715590956       -3.7158834684
 H          5.0946353501        1.0331973605       -3.2702714211
 O         -2.1501592752       -2.7420789166        1.5643025120
 H         -3.0139759259       -3.1698239066        1.4396702307
 H         -1.5246481323       -3.4628238872        1.7709829412
 O         -3.8934855592       -3.6606886286       -2.7965086148
 H         -4.0364763964       -2.7345354560       -3.0768955108
 H         -4.7162414068       -3.8843601110       -2.3293397299
 O          1.1099821652       -3.9084963623       -1.3634083325
 H          0.1900898059       -3.5905172195       -1.3179195367
 H          1.2442234218       -4.0561082599       -2.3149870274
 O         -4.3651160921        0.6750346352        3.6763879152
 H         -4.0246772674       -0.1691086487        4.0243675485
 H         -5.3329280362        0.5616504341        3.7184610867
 O          2.1334728406        4.4065579185       -3.4810684960
 H          3.1011719357        4.3814757481       -3.5711098315
 H          1.9655855102        5.0158137858       -2.7360019902
 O         -4.6351604949       -4.2170696997        0.9212637979
 H         -5.2146891748       -4.1467357265        0.1399890164
 H         -3.9314716173       -4.8402780562        0.6625769244
 O          2.3413638429       -1.7366184303       -5.2317443567
 H          2.4452111981       -1.0371567814       -5.8922047313
 H          3.2339222240       -1.8653723872       -4.8603348625
 O         -5.9302756781        4.5342110164       -0.9276240928
 H         -6.5803076345        3.8088082385       -0.9758452695
 H         -5.6079901539        4.5057282095       -0.0077854166
 O         -0.9517834327       -0.7797632313        4.8495306580
 H         -1.8642167464       -1.1201168180        4.8050781139
 H         -0.3838986559       -1.5590126868        4.7046426940
 O         -7.3655874187        2.3352089503        2.0146395520
 H         -7.3052581592        1.5019977918        2.5158118651
 H         -7.9928026664        2.8793710389        2.5138266806
 O          1.8665575016       -2.2367598539        0.9843204518
 H          2.6355896295       -2.6644018620        1.4032742918
 H          1.6665043975       -2.8185736810        0.2243018042
 O          6.2221200879       -0.6370490893        0.9821155979
 H          5.5416496915       -0.0160743365        0.6654112489
 H          7.0525178412       -0.1257250639        1.0210695771
 O         -7.2354086779       -0.0692437426        3.5724508106
 H         -8.0463289656       -0.2973088820        4.0459085740
 H         -6.8488388479       -0.9269091948        3.3162437098
 O          4.0124581139       -3.4520630516       -0.6882113560
 H          4.9359526843       -3.4682904581       -0.3817657116
 H          4.0000860434       -3.9607020549       -1.5174064394
 O          5.1737963358        1.0880913615        3.5320346725
 H          4.4284379112        1.2736986282        4.1342860629
 H          5.2683069141        0.1200622602        3.5708354793
 O          0.2389485911        3.0184100167       -0.0435137344
 H         -0.6541690552        2.9446201330       -0.4311279679
 H          0.8608061585        2.7005689917       -0.7233308172
 O         -2.4368106089        5.2798659934        1.3881680419
 H         -2.4192629698        4.4621813306        1.9220697676
 H         -3.3690005420        5.5481663120        1.4087664355
 O          1.2192800820       -4.2491994154       -4.2501251202
 H          1.5844054236       -3.4500206732       -4.6787900159
 H          0.2572881746       -4.1826258913       -4.3894222965
 O          2.1534720602        1.9120382119       -1.9975137747
 H          2.7631965367        1.3873729027       -2.5492281303
 H          2.0999393983        2.7505974034       -2.4894954562
 O         -7.6862962757       -1.7427100322       -2.8587433822
 H         -7.2517032729       -0.8725964442       -2.9298319918
 H         -7.9887269151       -1.9392659932       -3.7561657093
 O         -6.2683846205       -0.7265424095        0.4856795408
 H         -6.1844573891       -1.3158616155        1.2587289452
 H         -7.1991158477       -0.8020269081        0.2180619648
 O          0.0215641403        1.5834918240        3.5524354508
 H          0.7209316941        1.2026428088        2.9865435083
 H         -0.3190918970        0.8083974656        4.0332167160
 O          5.0098002075       -2.1604192738       -4.1707790586
 H          5.6205744045       -1.9270763498       -3.4488494006
 H          5.5955444381       -2.3617347671       -4.9140435407
 O         -2.2711952695       -5.6947152493        0.2628703634
 H         -1.4977167159       -5.4907681706        0.8219586106
 H         -1.9092289440       -6.0899166446       -0.5427195672
 O         -5.8406290524       -2.4616482510        2.8029258868
 H         -5.1196499101       -2.3399614827        3.4495902838
 H         -5.4978157775       -3.1457421216        2.2012530720
 O         -1.5959902309       -3.6758324204       -4.5274958737
 H         -2.3542745924       -3.7824399007       -3.9281891048
 H         -1.9953351348       -3.5254824191       -5.3956064577
 O          7.3342524093        2.6522411188        2.5441914901
 H          7.4518367336        3.3809583249        3.1670809927
 H          6.6175542874        2.1119661340        2.9248377176
 O          6.8064561519       -1.2228664587       -2.2498687632
 H          7.4677272114       -1.4652550677       -1.5791540544
 H          6.8670704527       -0.2515237650       -2.3326846382
 O          6.6038853064       -3.4231420657        0.5475197656
 H          6.5229414258       -2.4641706957        0.7164002833
 H          7.5101108062       -3.5163622411        0.2157303522
 O         -4.4687726122        1.4475602582        0.8421323595
 H         -5.1497852210        0.8029026085        0.5844610411
 H         -4.3587781650        1.2612282219        1.7928702558
 O         -6.4216810777       -3.9336721888       -1.3862771120
 H         -7.1271821519       -4.5809006172       -1.2457796887
 H         -6.8526696637       -3.1902173327       -1.8490203867
 O          5.3022938172       -1.7997295019        3.8656211903
 H          4.9517697103       -2.5002622972        3.2850507627
 H          6.1465218942       -2.1441235908        4.1906349871
 O          4.0330500747        3.4192657903        2.0835726016
 H          4.4186726792        2.6328488898        2.5108574180
 H          3.2446432785        3.6211433432        2.6190587723
 O         -2.5480620360        2.8079712735        2.9551999500
 H         -1.6590486188        2.4755408599        3.1760886168
 H         -3.1447798655        2.1154571701        3.2985711330
 O          8.8895827249        0.7825634855        1.0120821491
 H          8.4121120488        1.4315705596        1.5612483485
 H          9.7639674087        1.1777904742        0.8797832558
 O          4.1730146096        4.7292388140       -0.4404528162
 H          4.0700493558        4.3534448052        0.4546968873
 H          3.3117011099        5.1451107935       -0.6256438506
 O         -4.1447625308       -0.9072896109       -3.4391044417
 H         -4.9297309582       -0.3369179883       -3.3585329649
 H         -3.4109444966       -0.3074591675       -3.6660358349
 O         -1.9112824307        0.8942042916       -3.9399647762
 H         -1.2539637972        0.1744799952       -3.9085612790
 H         -1.4002638947        1.6961882043       -3.7284958345
 O         -9.0023845415       -1.0780922916       -0.3484825719
 H         -9.9553479666       -1.2429710642       -0.3824473932
 H         -8.6586974994       -1.3226022306       -1.2297927136
 O          8.8296995014       -1.8480407837       -0.2515236887
 H          9.7417069696       -2.1683119367       -0.2881313634
 H          8.8793641348       -0.9866579196        0.2047645730
 O         -3.6550596837       -1.9700113063        4.6831159018
 H         -3.9239334880       -2.0841604896        5.6053600322
 H         -3.1397482023       -2.7706333504        4.4716725458
 O          1.6402692502        3.9067774645        3.7022186877
 H          1.2770973900        4.5612064602        3.0814484303
 H          0.9832867896        3.1840981864        3.6712662984
 O          2.5233137341       -1.1426086350        4.4018844415
 H          2.5530055909       -0.1967411922        4.6274852205
 H          3.4535300535       -1.3733046113        4.2261425526
 O          2.3771057259       -5.5342674610        0.5770151828
 H          2.0099632891       -4.9909758863       -0.1454709902
 H          3.0120976031       -6.1139627166        0.1356313734
 O          6.8697304244        1.7181270407       -2.6587010664
 H          7.6836505505        2.0159809878       -3.0906213526
 H          6.8595206580        2.1654785852       -1.7910474208
 O         -6.4341394076        0.8413746356       -3.0210589325
 H         -5.8521268001        1.4682664673       -3.4890481786
 H         -6.8520073184        1.3569391923       -2.3077810806
 O          6.5743535425        3.1102773312       -0.2117373297
 H          6.8598150320        3.0432317965        0.7163960193
 H          5.9171283524        3.8276028606       -0.2336017647
 O         -1.3779312777        5.3443492893       -1.3550815665
 H         -2.1933525576        5.2346958098       -1.8767363370
 H         -1.7021655032        5.3680837968       -0.4343470723
 O         -3.7453824875        4.5386100049       -2.6911554019
 H         -3.9955442288        3.8762807860       -3.3614338660
 H         -4.5431136093        4.6506230256       -2.1446858412
 O         -4.3854919088        2.3053043503       -4.4384587848
 H         -4.4212101771        2.4802745818       -5.3872259911
 H         -3.5302455602        1.8563721154       -4.2994004191
 O          3.8881926186       -4.7142418756       -3.2254427616
 H          2.9853998856       -4.7031670632       -3.5907472995
 H          4.3086566773       -3.9128425570       -3.5970469210
 O         -5.0264387317        4.1571809441        1.8310271213
 H         -4.2738031724        3.6744786631        2.2207241351
 H         -5.7832974418        3.5464588032        1.9267323916
 O         -0.0717930969       -1.3225204126       -3.7170606118
 H         -0.5936241307       -2.1147169020       -3.9420889197
 H          0.7617619395       -1.4174523259       -4.2114799680
 O         -0.0614979389       -4.8294812693        1.9902200576
 H          0.2797847206       -4.3126041875        2.7444868490
 H          0.7456590281       -5.1265070801        1.5352225672
 O         -7.7629797359        2.2459642316       -0.8630408772
 H         -7.6227190784        2.2133190264        0.1022528564
 H         -8.7244901044        2.2788088323       -0.9757919268
 O          4.1826007391       -3.8550133031        2.1764205064
 H          5.0007080682       -3.8096912993        1.6445498724
 H          3.6158332811       -4.4876315981        1.6964519566
 O          1.4836414333        5.8284434327       -1.0007455726
 H          0.5328027729        5.6946733450       -1.1759161690
 H          1.4845926284        6.2233695547       -0.1119561471
 O          4.9745487820        4.0732843416       -3.1754015820
 H          4.7909469465        4.3462449598       -2.2540521593
 H          5.6000963993        3.3290174452       -3.1019540970
 O          2.8623134315        1.6735883730        5.1646450480
 H          2.4870343508        2.4520200361        4.7171562875
 H          2.4939825114        1.7047286587        6.0579689018
 O         -1.5141272065       -2.9426426637       -1.2758246420
 H         -1.8025047019       -2.8416491676       -0.3515621459
 H         -2.3207684266       -3.1940536352       -1.7572799502
