18

C          1.1956067224        0.3810439760        0.2749699821
C          2.6993267582        0.1988054806        0.4398058012
C          3.3048739621       -0.5930561241       -0.7170407712
C          4.8104223372       -0.7810968097       -0.5556226318
C          5.4141490570       -1.5692919510       -1.7184358828
O          6.7925871816       -1.8090235819       -1.5591217978
H          0.7847307317        0.9460737154        1.1083269558
H          0.6967141904       -0.5847813396        0.2356859339
H          0.9746565928        0.9171147501       -0.6455272552
H          2.9009463902       -0.3234896023        1.3776341886
H          3.1790981167        1.1786519338        0.4972352731
H          3.1045811920       -0.0710584163       -1.6560239285
H          2.8240160617       -1.5719984791       -0.7751608993
H          5.0195701758       -1.3132022816        0.3749761863
H          5.2956555541        0.1982438034       -0.4961001357
H          5.2241018357       -1.0388860571       -2.6640512701
H          4.9541986817       -2.5581683607       -1.7828096756
H          7.2421309110       -0.9635515651       -1.4497510164
