  131

 H          0.4630927076        1.1941025328        0.8323452959
 C          0.5529035761        0.5095402430       -0.0251092078
 H          0.4633421182        1.0989800596       -0.9466436097
 C         -0.5779259333       -0.5149488604        0.0205351876
 H         -0.4518492549       -1.1270258237        0.9278134321
 H         -0.4840892691       -1.1748678656       -0.8448928486
 N         -1.8603253885        0.1647702475       -0.0623309409
 H         -2.6131021662       -0.5138473280       -0.0751527666
 H         -1.9956541840        0.7570092262        0.7508171932
 O          1.7808081027       -0.1833448059        0.0209869107
 H          2.5006908393        0.4507195084       -0.0567171281
 O          2.3443343573       -1.3386020517       -2.5272671192
 H          2.0483961697       -1.5405470613       -1.6201418549
 H          1.5218307641       -1.2147430442       -3.0364323568
 O          3.0831385487        2.2374308807        0.2560119230
 H          3.8405732445        2.7372772788       -0.0698461842
 H          3.3072430334        2.0265613533        1.1769200970
 O         -2.3688217626        0.1941137922       -2.6860331368
 H         -2.1355534986        0.3352829748       -1.7309748899
 H         -2.7213883102       -0.7233153178       -2.7012827975
 O         -4.7732049875        0.2327798957       -0.1074486538
 H         -4.9770370320        0.4734392338       -1.0379705168
 H         -4.5026889846        1.0634268294        0.3326233035
 O         -4.0142786989       -2.3151969238        0.1773516967
 H         -4.2910564593       -1.3783870401        0.0785784514
 H         -4.8874395134       -2.7911602212        0.1249893129
 O          1.3974741608       -2.9569388298       -0.4455222485
 H          1.0548683316       -2.9519223762        0.4637947938
 H          2.1926345071       -3.5372597912       -0.4421118134
 O         -3.1174987115       -2.3605487692       -2.3609958993
 H         -2.3042354997       -2.8782301111       -2.4030212537
 H         -3.4400842212       -2.4379830295       -1.4347502410
 O         -0.1014160143       -1.0282990999       -3.6011072341
 H         -0.3556768925       -1.9187450276       -3.3194472724
 H         -0.8653656810       -0.4612787302       -3.3777051838
 O         -0.5094436371       -3.4929710592       -2.1556432443
 H         -0.2598303633       -4.3094253965       -2.5897536783
 H          0.2374613324       -3.2802337382       -1.5266248347
 O          3.7558038914       -4.1869401813       -0.4224125843
 H          4.0773580986       -3.7223657772        0.3719740961
 H          4.2079922318       -3.7587357662       -1.1667018435
 O         -3.8824411830        1.3336086440        3.4087053443
 H         -2.9292790341        1.4151566657        3.5490413524
 H         -4.0620223871        0.3870825460        3.2621469892
 O         -4.3439825926       -1.3249743680        2.7920481285
 H         -5.2974320635       -1.1911129698        2.6550921561
 H         -4.0645182798       -1.8212474247        2.0061735773
 O         -4.1071306727        2.5670077461        1.1055700879
 H         -4.1304088357        2.1910434374        2.0237505295
 H         -3.1985672243        2.8964752215        1.0045994862
 O         -1.1458714688        1.5223587781        2.9237284198
 H         -1.2549500833        2.1304858773        2.1713598387
 H         -0.2241853300        1.5999304230        3.2076162080
 O          2.3064120188       -1.1494197365        2.4651747420
 H          1.6719378976       -1.8506234390        2.6640293446
 H          2.0577674367       -0.8495696682        1.5580651502
 O         -1.4805231758        2.8596747209       -2.0866852182
 H         -0.5581532497        2.8207410263       -2.3830628302
 H         -1.8901709275        2.0845783780       -2.4894436516
 O          0.9820169740        1.9161535533       -3.0047648035
 H          0.7712140412        1.1201065619       -3.5022622478
 H          1.9268265404        1.8669050219       -2.8010703021
 O         -1.4515530903        3.1270319423        0.6563795146
 H         -0.6192364599        3.6000254357        0.8465527505
 H         -1.4537195114        2.9874160314       -0.3105501282
 O         -1.4851490834       -1.2311001597        3.2526877061
 H         -2.4316579378       -1.3819806295        3.3483721158
 H         -1.3634062830       -0.2734450519        3.1601450453
 O          1.6418225399        1.5761080607        3.1214486038
 H          2.4611701882        2.0594524043        3.3032054778
 H          1.8800454326        0.6390566476        3.0330930046
 O          4.8650791213       -2.2624861822       -2.1128581032
 H          4.8801292132       -1.5934666870       -1.4106764053
 H          4.0009104716       -2.1306085495       -2.5369337738
 O         -6.7314668495       -0.6940404770        1.5253511528
 H         -7.3293655103        0.0278254674        1.7351835859
 H         -6.1080485360       -0.2964128597        0.8818724288
 O          0.2246875972       -3.0303516100        2.1179937570
 H         -0.3464241783       -2.4430814120        2.6474652138
 H         -0.4155786837       -3.6037603408        1.6590675559
 O          4.5395924117       -2.2899222068        1.3771087872
 H          3.7670283128       -2.0843327199        1.9346187416
 H          4.5599159971       -1.5724227398        0.7250709880
 O         -4.9862757414        1.0336390320       -2.6367173204
 H         -4.9296605500        1.9858543377       -2.4199859294
 H         -4.0798318793        0.7841686136       -2.8932116018
 O          4.7235826618       -0.0865267440       -0.3409829668
 H          4.5900345646        0.3835287965        0.5077610424
 H          4.2958565122        0.4551277062       -1.0542497404
 O          1.0884728372        3.7674836659        1.3614855026
 H          1.1118991444        3.1496089572        2.1063281243
 H          1.6721910558        3.3620773421        0.6967168520
 O         -6.5098190584       -2.9780876312       -0.0991512882
 H         -6.8635691882       -2.3128601476        0.5118106424
 H         -6.5606739544       -2.5837398380       -0.9873537225
 O         -5.9635650804       -1.6675556966       -2.4885935272
 H         -5.9020432439       -0.7194199646       -2.6568624314
 H         -5.1119617219       -2.0392782162       -2.7436798619
 O         -1.7233655099       -3.9985852727        0.4510877267
 H         -2.5419682350       -3.4898313798        0.5129189547
 H         -1.4114850073       -3.9057421304       -0.4577764010
 O          4.4450013797        0.7693782309        2.1897302456
 H          5.3825069111        0.9301975304        2.3654805535
 H          4.1530322027        0.0190358064        2.7157797463
 O          3.6328053426        0.9850226581       -2.4736599338
 H          4.4466314496        0.8692661473       -2.9946299715
 H          3.1264103344        0.1443489681       -2.5815386650
 O         -4.3199898363        3.4316304441       -1.6038579431
 H         -4.3590232174        3.2913615436       -0.6486586103
 H         -3.3880166163        3.5617488852       -1.8157656251
 O         -6.9775827377        2.0855745812        0.8201779765
 H         -6.1200053879        2.4445542528        1.0753279635
 H         -7.1742473608        2.4414699163       -0.0475819208
 O          7.1101897515        1.3523823793        1.7021269811
 H          7.9414069895        1.4601566730        2.1620364906
 H          7.3123693876        0.8523190320        0.8646356405
 O          5.5783876877        3.3655896712        0.6494996410
 H          6.1460959004        3.8898123282        0.0852316580
 H          6.1398722789        2.6695843503        1.0433955223
 O          7.3661407797        0.0398605447       -0.5630460369
 H          6.3836616493        0.0551785387       -0.6017692433
 H          7.5643741534       -0.8936700259       -0.3619974683
 O          7.0402282119       -2.5937372813        0.0118557918
 H          6.3779243365       -2.6721927182        0.7106000304
 H          6.6498902527       -2.9849601648       -0.7750661663
 O          3.6565642184        3.5408849329        2.8106397811
 H          4.3969370081        3.6008356480        2.1925458992
 H          2.9972506120        4.1733622635        2.5055631069
 O          6.0844689685        0.0341522146       -3.2529193535
 H          6.8138150397        0.2152062746       -2.6494032892
 H          5.8615581134       -0.9011681635       -3.1305929885
