  192

 H         -0.5425054112       -1.1597996585        0.9180873603
 C         -0.6112510051       -0.5412956740        0.0100749183
 H         -0.5391308395       -1.1969144470       -0.8712436601
 C          0.5103658647        0.5037878336       -0.0094871839
 H          0.3911098457        1.1518924073        0.8600966289
 H          0.3944399221        1.1152669956       -0.9056411629
 O         -1.7891825170        0.2100258093       -0.0077307040
 H         -2.5646581753       -0.3620747641        0.0026734602
 N          1.8637421187       -0.1172780949        0.0059475209
 H          1.9871272141       -0.7237037740       -0.8163106223
 H          1.9839787968       -0.6890763206        0.8531041602
 H          2.5930828886        0.6072400317       -0.0077051380
 O          3.3617911648        2.0903110475       -0.3943936453
 H          3.7674154792        2.1579295949       -1.2774560694
 H          4.1079500150        2.2042700470        0.2356217381
 O          3.2503016072       -3.2311145008        0.7175815345
 H          3.1800795637       -3.7155602143       -0.1175586038
 H          2.4951964583       -3.5172027826        1.2593189759
 O          1.8077530415       -1.2799184105        2.4923114538
 H          2.6698209139       -1.1185423879        2.9257583580
 H          1.2032051655       -0.6266862495        2.9058139695
 O          1.8808035451       -1.9060776732       -1.9132448448
 H          1.2066020418       -2.5579460262       -1.6672672237
 H          1.7003125803       -1.6460856057       -2.8377807901
 O          1.0132804163       -1.1014894578       -4.3108263390
 H          0.7859659627       -2.0013204037       -4.6094709589
 H          0.1811649376       -0.7251430589       -3.9774619961
 O         -2.5467873129       -3.4329271274       -1.9447494710
 H         -2.5186922164       -2.9948225584       -2.8270061090
 H         -2.7987056846       -2.7321860854       -1.3000543934
 O         -0.0290401125       -3.7503614596       -1.1016066721
 H         -0.9382718407       -3.7397491583       -1.4771953341
 H         -0.1815185396       -3.6086705814       -0.1506956494
 O         -1.2548649059        0.0515213478       -3.3506178290
 H         -1.9739530113        0.2086132925       -2.7062480252
 H         -1.2511596954        0.8463432790       -3.9159385448
 O         -0.9017571046       -3.3342471713        1.5131718835
 H         -0.2781806991       -3.8886136165        2.0041536619
 H         -1.7936289771       -3.6950706203        1.6146554031
 O          3.1670866750        1.0922638239        2.1491736240
 H          3.8193878048        0.4527598859        1.8203663140
 H          3.6451291229        1.6958047762        2.7375760074
 O          4.5756361071       -0.8660131777        0.7530066814
 H          4.4439038718       -0.5567461671       -0.1630657202
 H          4.0531383727       -1.6849278566        0.8296024616
 O         -3.5269739601       -1.7247571015       -0.1667115663
 H         -3.5863695041       -2.3217414189        0.6033895711
 H         -4.4434520380       -1.4886584252       -0.4313099148
 O          0.1674885548        0.4347325900        3.6901138687
 H         -0.5704963981        0.8824862876        3.2180723449
 H          0.6973962256        1.1504795575        4.0854918957
 O          1.6236175712        3.2426978888        1.7440557953
 H          2.0632897325        2.3730660787        1.6734517773
 H          2.3716205521        3.8744790514        1.6626304683
 O          2.3691203857        1.0795747072       -3.3699658935
 H          2.0012176015        0.3621313838       -3.9057179469
 H          1.6190118344        1.6173730676       -3.0624055084
 O         -1.8164236518        2.7693787239       -1.0520540045
 H         -2.6967594597        3.1253813968       -1.2849881523
 H         -1.9512184630        1.8439407620       -0.7853491035
 O         -1.8145681878        1.5725234661        2.3502131117
 H         -1.9325596515        1.0745107490        1.5182249062
 H         -1.5663211403        2.4849029680        2.0776277231
 O         -1.0100672348        3.8548894151        1.2805256784
 H         -0.0490132797        3.7838904483        1.4060721474
 H         -1.1891844790        3.5854928642        0.3568151360
 O         -4.1676709591        1.1763423496        3.6763502644
 H         -3.3131356393        1.4088034297        3.2736874254
 H         -4.0782234972        0.2678155563        3.9823401543
 O         -3.8713712230       -1.6700178650        4.0088116981
 H         -4.1414413392       -2.0036972798        4.8647092000
 H         -2.8717763435       -1.6804010163        4.0091123291
 O          0.4009266029        2.8641437864       -2.5634159623
 H         -0.4046496165        2.8722191594       -2.0064465894
 H          0.9896360053        3.5446776751       -2.1890856513
 O         -4.2272976114        1.2084598412        0.4768539207
 H         -4.6292102534        0.5712696814        1.0952090206
 H         -4.0799266688        2.0461794166        0.9564213251
 O         -3.5698784599        0.5000510788       -2.1625925443
 H         -3.8616324546        0.6603032708       -1.2539005876
 H         -4.1018928400       -0.2390927924       -2.5286190275
 O          4.2357788408       -0.2367657634       -1.8365817602
 H          4.3763941689       -1.1586103534       -2.1767965202
 H          3.5676688233        0.1740743966       -2.4109252132
 O         -7.6055075081        0.8494219827        1.1617130480
 H         -7.4233184792        1.6269248803        1.7170367936
 H         -6.9065506172        0.2252499289        1.4310914203
 O          5.6071247789        2.4154048476        0.9634671586
 H          5.7718709977        1.8639158858        1.7547294785
 H          6.1046651211        2.0283028246        0.2251040322
 O         -1.2852128861       -1.8605608015        3.8887182521
 H         -0.7513436165       -1.0537554002        3.9761092936
 H         -1.0645537638       -2.2546852797        3.0284517551
 O          5.9777429783        0.8052101026        3.1402474599
 H          5.3375913132        0.0967968798        3.3431081982
 H          6.7724890425        0.3493443317        2.8236247883
 O         -6.3269423729        1.8592798186       -0.9732946417
 H         -5.5136130561        1.7068291706       -0.4341584060
 H         -7.0473024972        1.6756114247       -0.3371035346
 O          6.3277412677        1.3467363494       -1.4805674449
 H          6.1590066771        2.0763836014       -2.0856719679
 H          5.5845994696        0.7156417842       -1.6437274279
 O          4.7003467937       -2.7439562999       -2.4130689312
 H          5.3669009997       -2.9067032231       -1.7227718298
 H          3.9178944729       -3.2642621361       -2.1899865882
 O          6.5063136289       -2.4713056263       -0.3321030167
 H          5.9033913299       -1.8731350713        0.1553723530
 H          7.2259449717       -1.9041140942       -0.6404621436
 O          4.3364107502        2.8897715849       -2.8165402852
 H          3.8664975094        3.7227978989       -2.7076720730
 H          3.7485818204        2.3075858001       -3.3230833308
 O          2.2259286404        4.3765250210       -1.2485660812
 H          2.5637857645        3.6011776899       -0.7504318772
 H          2.2630697217        5.1190313405       -0.6451034951
 O         -4.2928130245        3.7591410225       -1.6678956779
 H         -5.1446320606        3.3665376638       -1.4325644380
 H         -4.1847189011        3.5513175226       -2.6174113935
 O         -3.8668620613        3.8199839517        1.1660035065
 H         -2.9896708573        4.1098006217        1.4405056261
 H         -3.9992585040        4.1512500001        0.2690984894
 O         -5.5144126555       -0.8248314381        1.8218241659
 H         -5.7524874472       -1.6938230131        1.4422741769
 H         -5.1216954724       -0.9874753160        2.6860099838
 O         -5.9333582985       -0.9422520526       -1.0301888885
 H         -6.1312187369       -0.0006196524       -1.1294364611
 H         -6.7511862963       -1.3306460893       -0.6722034051
 O         -8.3567555151       -1.6342108380       -0.0150168204
 H         -8.4516459901       -0.8569098194        0.5527689234
 H         -8.7049331915       -1.3580406605       -0.8772418134
 O          3.9404455380        4.5564264404        1.6771356691
 H          4.6178707346        4.0166983072        1.2429740692
 H          4.1002864240        4.3981181010        2.6165153044
 O         -6.1856785186       -3.2695217510        0.7493359862
 H         -7.1269209760       -3.0698469017        0.6664636451
 H         -5.8727795332       -3.4119068317       -0.1656615678
 O         -5.2657845451       -3.6779387922       -1.8204665665
 H         -4.2919242066       -3.7720143405       -1.8739943616
 H         -5.6463528908       -4.4012771935       -2.3168710159
 O          4.7693377177       -3.4750080515        3.0190434129
 H          5.7374743036       -3.4536738117        2.8426196881
 H          4.3547707866       -3.5349677819        2.1427432235
 O         -6.1484296091        2.6928099041        2.4951020568
 H         -5.5688010523        2.1579857018        3.0620048645
 H         -5.5794546068        3.3803991599        2.1342542886
 O          1.4415345570        2.7427035688        4.3883276436
 H          1.4850638396        3.0105956412        3.4395139424
 H          0.8623240259        3.3696737710        4.8212989079
 O         -2.4954739278       -2.1564705638       -4.2752766157
 H         -3.4375883642       -1.9274852109       -4.3102779073
 H         -2.0311495175       -1.3237688749       -4.0477711774
 O         -4.9774944219       -1.3483767628       -3.5293048886
 H         -5.3551794044       -1.9251169912       -2.8455799749
 H         -5.6337976738       -0.6498334053       -3.7013642091
 O         -3.6844670187       -3.4768618950        1.9111324728
 H         -3.7945717980       -2.9123192390        2.6974325492
 H         -4.5685387867       -3.7831902652        1.6701292330
 O          7.2759142156       -3.1330253497        2.2099846567
 H          7.5974966863       -2.2311858533        2.3537535520
 H          7.1078762022       -3.1876629021        1.2529615316
 O          4.1512266031       -1.1199494369        3.8706480262
 H          4.4406368824       -2.0294940288        3.5554484382
 H          4.0718916538       -1.1801754167        4.8223297439
 O          8.2635004601       -0.3332852525       -0.7395155637
 H          9.0420246746       -0.2372141880       -1.2887681602
 H          7.6072358660        0.3241503971       -1.0568772955
 O          4.2413100299        2.9287579835        3.9348098602
 H          4.9815430086        2.3515145521        4.1502930259
 H          3.5054080022        2.7461403638        4.5317684405
 O         -0.0991774675       -3.5573432982       -4.4177942507
 H         -0.1203101135       -4.0238035243       -3.5795598259
 H         -1.0049041560       -3.2658249158       -4.5948685408
 O         -3.9019468450        2.4541740996       -3.9897491946
 H         -3.0584896781        2.5946484507       -4.4345499194
 H         -3.7485939905        1.7121915483       -3.3672350754
 O          1.4624903569       -3.8960445841        2.7036852727
 H          2.0809161422       -4.2484980560        3.3460006288
 H          1.5130798306       -2.9132429340        2.7720124639
 O         -6.3779244323        1.0127555335       -3.5832036984
 H         -6.3621982448        1.4156202133       -2.6944962194
 H         -5.7992554114        1.5658061992       -4.1205000533
 O         -1.1206613356        2.3889046705       -4.7146810394
 H         -0.6264058469        2.4024813196       -5.5337576117
 H         -0.5280514966        2.7416506151       -4.0177055175
 O         -8.6448480534       -0.1842539513       -2.3409743796
 H         -9.2188793610        0.5743221332       -2.2294973780
 H         -7.9536485342        0.0870911276       -2.9590086870
 O          2.6045387599       -4.6518651450       -1.5296437299
 H          2.7431717841       -5.4851062551       -1.9783600095
 H          1.6471725722       -4.5171219582       -1.4429213337
 O          8.1576438022       -0.4648768223        1.9970130311
 H          8.1898249429       -0.4108399929        1.0221903256
 H          9.0399735225       -0.2752935219        2.3157600232
