  252

 H         -0.5425054112       -1.1597996585        0.9180873603
 C         -0.6112510051       -0.5412956740        0.0100749184
 H         -0.5391308395       -1.1969144470       -0.8712436602
 C          0.5103658647        0.5037878336       -0.0094871837
 H          0.3911098457        1.1518924073        0.8600966290
 H          0.3944399221        1.1152669956       -0.9056411628
 O         -1.7891825170        0.2100258093       -0.0077307040
 H         -2.5646581753       -0.3620747641        0.0026734602
 N          1.8637421187       -0.1172780949        0.0059475206
 H          1.9871272141       -0.7237037740       -0.8163106223
 H          1.9839787968       -0.6890763206        0.8531041605
 H          2.5930828886        0.6072400317       -0.0077051379
 O          3.9422896250        1.2757313305        1.0684970905
 H          4.5511483643        0.9339259311        1.7457495400
 H          4.5135711973        1.8360971549        0.5041229287
 O          1.9671032728       -1.6449726101       -2.2006369412
 H          2.0121960898       -2.6101615697       -2.0725557187
 H          2.6194373740       -1.4713495860       -2.9243119722
 O          1.3799956069        1.5501004801       -2.8979553017
 H          1.7155232048        2.4478274494       -3.0691531925
 H          1.1289016083        1.2138869870       -3.7805462117
 O         -1.3303421899       -0.1767151980        4.1730984103
 H         -0.6755039252       -0.1958448560        4.9014013229
 H         -1.6626971123        0.7329636972        4.1090147851
 O          1.7545321207       -0.3967823471        2.7832553630
 H          1.9113063938        0.3502650636        3.3854930932
 H          1.5060278818       -1.1517474659        3.3609261095
 O          2.4999825507        1.4960301271        4.5714751129
 H          3.3391239267        1.0548913142        4.8161916235
 H          2.7397711042        2.1935556916        3.9139969348
 O          4.0495872897       -1.4945364899        2.1240131144
 H          3.2920210977       -0.9479163380        2.4339501591
 H          3.7366609779       -2.4144983270        2.2391384279
 O          2.9165484759        3.1929683455        2.6007784567
 H          3.0427173892        2.5286082948        1.8868050821
 H          2.0494176081        3.6154339427        2.4997081902
 O          0.5011429186        3.9328109241        0.2606331985
 H         -0.1422950733        3.3675677512        0.7316325843
 H          0.1761214602        4.0026767355       -0.6644817652
 O         -0.5563511654        4.0961170840       -2.1812264990
 H         -1.0525157595        3.2459274469       -2.1444973434
 H         -1.2421787896        4.7563128305       -1.9812857674
 O          1.3919169219       -2.7330725204        0.8519105317
 H          0.7408887614       -2.6100154701        1.5727632650
 H          0.9334649457       -3.2950300165        0.2017973150
 O         -1.5020515270        2.4923851690        1.3323540401
 H         -2.3101107359        2.9718337302        1.0265944163
 H         -1.6203372245        1.5886164277        0.9809810443
 O         -3.3319454413       -1.8719345691       -0.3730875382
 H         -3.4532801658       -2.4650167446        0.3983619379
 H         -2.8114583913       -2.3748682331       -1.0279149038
 O         -1.9430005549        2.5069713953        3.8990958403
 H         -1.6139571069        2.4773831974        2.9650068151
 H         -1.1638525262        2.6459961545        4.4720732989
 O         -2.1619299406        2.0299157293       -2.0580999000
 H         -2.1893282356        1.4032654459       -1.3129481508
 H         -3.0753314742        2.3451703793       -2.2182868167
 O          3.6380664157        1.0271680439       -1.7202043820
 H          2.7752986371        1.0825966043       -2.2076732416
 H          3.7591968526        1.9168453302       -1.3570004549
 O          4.6709077829       -1.1670036017       -0.4166375643
 H          4.4225080970       -1.1777363479        0.5371981760
 H          4.3514434257       -0.3424860734       -0.8185634067
 O         -1.7902414341        0.3372483352       -4.0625053299
 H         -1.7177599983        1.0395536574       -3.3825612046
 H         -2.6732780375       -0.0403496938       -3.8840425774
 O         -0.6416469939       -2.3070161468        2.5784229175
 H         -0.7649006102       -1.4915666647        3.0879161053
 H         -0.9649737359       -3.0205781103        3.1506012935
 O          5.7397316928        2.7146167164       -0.2870099387
 H          6.5875526189        2.2205023100       -0.2049606922
 H          5.6783174639        3.0032449383       -1.2146391192
 O         -1.9748657278       -3.2877393047       -2.2565993961
 H         -2.8076914407       -3.3508829267       -2.7719427113
 H         -1.3630202948       -2.7646583756       -2.8299928334
 O         -4.3918549643        0.9842029057       -0.6635666418
 H         -4.3238745838        0.5476250654        0.2121466336
 H         -5.3430299519        1.2276931754       -0.7644066960
 O          3.0093624229        3.4713124773       -0.4635728678
 H          3.5022866203        4.2225928534       -0.0794426142
 H          2.0926878609        3.5754407864       -0.1362097252
 O         -4.1621711667       -0.3446603969       -3.0349335347
 H         -4.8403673246        0.1410928334       -3.5325719581
 H         -4.1675463664        0.0532698845       -2.1380692649
 O         -4.3198515495        0.0716857423        1.8156148208
 H         -4.4458045152        0.9174827335        2.2881474342
 H         -5.2419156249       -0.2908848916        1.6632129586
 O          7.3129200631       -1.1938060776       -0.6225242236
 H          6.3407008139       -1.2445773008       -0.4846573676
 H          7.7412039548       -1.6628889205        0.1120875801
 O          3.5627938717       -1.4868228868       -4.2778879579
 H          4.0332304367       -0.6387334898       -4.3976206779
 H          2.8628792490       -1.5348401009       -4.9726522112
 O          3.1676401170       -4.0844884941        2.1625314691
 H          3.8832780508       -4.4976164727        1.6606891962
 H          2.5489690441       -3.6511583688        1.5192450526
 O          6.2269384305       -2.9107819245        2.8504019566
 H          5.9787687979       -3.6166829686        2.2283868437
 H          5.6189890022       -2.1748302633        2.6543441612
 O         -0.2873889559       -1.8143208542       -3.6436328188
 H         -0.7840576809       -0.9783324349       -3.7849235845
 H          0.4882081393       -1.6067334864       -3.0817178008
 O          1.4983138340       -2.4050951520        4.5148295565
 H          1.0997056959       -3.1921498688        4.1107524145
 H          2.4420917499       -2.6046559724        4.6805687296
 O          5.0928067948        0.6758928657       -3.9067342883
 H          5.9222098149        0.1836005447       -3.7423594251
 H          4.6145393704        0.7034964348       -3.0494739688
 O         -3.5061697009       -1.6471505339        3.6341678696
 H         -3.7936961492       -1.0237665184        2.9213051668
 H         -2.7101463658       -1.2106218322        3.9910418351
 O         -7.5849108664       -0.3558823601       -2.4639549530
 H         -6.8821383363       -0.9549656002       -2.1314544626
 H         -8.3529798955       -0.6050053885       -1.9255445129
 O          4.7176648979       -3.6113450453       -1.4385927061
 H          4.5915082491       -2.6983592115       -1.1029253220
 H          5.2289561145       -3.4922203148       -2.2799013716
 O          7.3784348371       -0.6051622755       -3.2621515643
 H          7.9037707408        0.2040260221       -3.2991731073
 H          7.4271741698       -0.9062956963       -2.3366748781
 O         -5.8507272825       -1.9105028179       -1.1791742257
 H         -4.9034870288       -1.7154862394       -1.0097622055
 H         -5.8923294089       -2.8818091255       -1.1057850040
 O         -6.5982110261       -0.9178853561        1.2002915928
 H         -6.4434673643       -1.2853965040        0.3059957456
 H         -6.7081795318       -1.6764376027        1.8013085027
 O         -5.5114938909       -4.4039607203       -0.2720586911
 H         -4.9039953458       -5.0037103614       -0.7365948519
 H         -4.9952210722       -4.1143531366        0.4952631651
 O         -3.7672369678        3.4075364002        0.3960571940
 H         -3.5195211731        4.0990556036       -0.2458277923
 H         -4.0049755673        2.6056079715       -0.1177527127
 O         -4.3094142216       -3.0129775538       -3.4667561862
 H         -4.5479563050       -3.1415375992       -4.3831306513
 H         -4.3635954211       -2.0531531535       -3.2777125957
 O         -4.5390691958        2.5309673709        2.9010252682
 H         -3.7283216983        2.5391747465        3.4285706303
 H         -4.3578122913        3.0076320587        2.0744472966
 O         -6.8523574025        1.8178018153       -1.0029850577
 H         -7.3784846132        1.7038230570       -0.1873003976
 H         -7.1892002011        1.1237256106       -1.6027738763
 O          5.9603064770        1.1030887838        2.8505600176
 H          6.9039796878        0.8289452985        2.7258358644
 H          5.9791110881        2.0804883674        2.8355573954
 O         -3.6571567877       -3.5469744763        1.6943096828
 H         -2.8281433579       -4.0653968541        1.6290861085
 H         -3.5387193825       -2.9166662319        2.4332036219
 O          5.5298381169        3.1790198008       -3.0167461738
 H          5.3649062826        2.3511667799       -3.5179881311
 H          4.7236091322        3.6966471282       -3.1543016429
 O          5.5074313833       -4.6736916004        0.8389770377
 H          6.0133147699       -5.4659161690        0.6671876837
 H          5.2753203548       -4.2936597756       -0.0435141125
 O          5.5893322113        3.7496301717        2.2679591435
 H          5.7036759932        3.4843397831        1.3374926909
 H          4.6472549674        3.6309646259        2.4781839377
 O         -4.6940367287        2.9322259099       -2.6499841100
 H         -5.0668775591        2.4349618992       -3.3885411721
 H         -5.3997994039        2.9435629663       -1.9920498261
 O          4.1442858989       -2.5815065348        4.9067709234
 H          4.3646961936       -1.6357163100        4.9430671881
 H          4.8449705086       -2.9999098196        4.3944959408
 O          0.0708692849       -4.3647870282       -0.8340504297
 H         -0.6351768292       -4.0133601619       -1.4019635851
 H          0.8098257018       -4.5994799974       -1.4151212469
 O         -6.1199945477       -1.0799070657        4.4506361768
 H         -5.1723442814       -1.2653385199        4.3676145253
 H         -6.5599752013       -1.8411779696        4.0524762676
 O         -8.4400800410        1.1784577801        1.0901673794
 H         -7.8631699493        1.0706056502        1.8919110859
 H         -9.1606764420        1.7444103372        1.3672615098
 O         -9.0547344458       -1.1385167917       -0.2904505685
 H         -8.6750256114       -0.4513674136        0.2972114058
 H         -9.9794316030       -1.2152603641       -0.0548707760
 O          0.6682764234       -0.2769791889        5.9540565558
 H          0.9015224716       -1.1873325235        5.7012779088
 H          1.4170429121        0.2571792743        5.6651019854
 O         -2.6532725056        5.4041919628       -1.0633864932
 H         -3.2146762996        6.1271898220       -1.3365397233
 H         -2.0993196744        5.7312080296       -0.2972174392
 O          0.2207117049        2.6496393918        5.4910725824
 H         -0.0572034661        2.0678350984        6.2025100486
 H          1.0712882386        2.2841817523        5.1837194256
 O          2.8002486598        3.9196547194       -3.0507746611
 H          2.2635531215        4.6827619356       -3.2648705687
 H          2.8574208395        3.8590935451       -2.0653259399
 O          4.7742246610        0.1334098266        4.9445074684
 H          5.2473034964        0.4397047296        4.1227147031
 H          5.3742816900        0.2952350326        5.6710322867
 O          8.4652758630        0.5190047186        2.3781203988
 H          8.5655905940       -0.4234838235        2.1626867899
 H          8.5544656873        0.9937311334        1.5386911423
 O         -1.1345313945        6.0151613784        0.9584186468
 H         -0.4045143977        5.3786167859        0.8343041116
 H         -1.6311941648        5.7231176907        1.7428171596
 O          0.4790508367        4.3082421489        3.1645891426
 H         -0.0569082940        5.1007922984        3.0922261661
 H          0.4370908506        4.0290873477        4.0850614456
 O          5.7785528264       -2.9737127689       -3.7398935023
 H          6.4799464141       -2.3121495651       -3.7425402600
 H          4.9837662583       -2.5194690664       -4.0796359741
 O          2.3478875658       -4.3307763478       -2.3353660829
 H          2.4644696382       -4.5412289405       -3.2628914921
 H          3.2540183145       -4.1955505168       -1.9633605935
 O         -1.3830262886       -5.0173785213        1.4090175407
 H         -0.7470271446       -4.9496693753        2.1376835048
 H         -0.8555711877       -4.8299366345        0.6160608304
 O         -7.0366226897        1.2128178417        3.3057706591
 H         -6.7734675035        0.3887978673        3.7628115791
 H         -6.2566284271        1.7790318358        3.2916851949
 O         -6.6259559493       -3.2002372723        2.6800926253
 H         -5.8046301725       -3.6632655914        2.4948141859
 H         -7.2929979104       -3.5383340601        2.0405436138
 O         -8.1296311671       -3.7035062422        0.5527663879
 H         -8.3791762827       -2.8556483936        0.1508536607
 H         -7.4088224612       -4.0774627936        0.0289768391
 O          0.7819641844       -4.7699674094        3.2233293050
 H          1.6988938307       -4.7244030829        2.8864515622
 H          0.7660439280       -5.3923703100        3.9472576446
 O          1.4221686532       -1.4928057893       -5.8066154728
 H          0.7409698757       -1.8130483197       -5.1907366517
 H          1.2193668899       -0.5560504032       -5.9413804865
 O          8.4323448620       -2.1446727965        1.6632214852
 H          9.1697589357       -2.7118244917        1.8835325851
 H          7.6553049478       -2.4472162239        2.2025104459
 O         -2.4833927821        5.0941576408        3.1580274660
 H         -2.3184954906        4.2105309074        3.5389174109
 H         -3.4323775321        5.2205641136        3.1559089109
 O          8.0044197154        1.3359258785       -0.2217768453
 H          7.7540148863        0.3928045089       -0.3575305882
 H          8.2966064855        1.6449326869       -1.0936319089
 O          8.0967296615        2.1179104741       -2.8222096947
 H          8.7775443420        2.7131831790       -3.1299737296
 H          7.2515505086        2.5885426884       -2.9212384087
 O         -6.1419523343        1.0665739584       -4.2388899426
 H         -6.8156072739        0.6325834056       -3.6801902633
 H         -6.4566316934        1.0172602769       -5.1401159567
 O         -3.1589719521       -5.6125398665       -0.9096645055
 H         -2.6735575485       -4.9685584910       -1.4365752482
 H         -2.6671860126       -5.7265181352       -0.0902320660
 O          4.0602032996        5.5983015628        0.8091087283
 H          4.8067489979        5.3133965652        1.3578676181
 H          3.3818998469        5.9210696465        1.4045792887
 O         -2.0105098505       -4.0208160718        4.2600703629
 H         -2.4554760263       -4.7881890859        3.8967068005
 H         -2.6860245314       -3.3523775161        4.4267736036
 O          0.4713108369        1.0773701738       -5.3912937467
 H         -0.4223322498        0.7777341639       -5.1609702136
 H          0.4045481980        2.0464309255       -5.4500079432
 O         -0.1497481684        3.6803048702       -4.8449086522
 H         -1.0363965511        3.8545445467       -5.1617977128
 H         -0.1684813825        3.8595860643       -3.8847225744
