  146

 H          0.4630927076        1.1941025328        0.8323452958
 C          0.5529035761        0.5095402430       -0.0251092077
 H          0.4633421182        1.0989800596       -0.9466436098
 C         -0.5779259333       -0.5149488604        0.0205351875
 H         -0.4518492549       -1.1270258237        0.9278134321
 H         -0.4840892691       -1.1748678656       -0.8448928486
 N         -1.8603253886        0.1647702475       -0.0623309409
 H         -2.6131021662       -0.5138473280       -0.0751527666
 H         -1.9956541839        0.7570092262        0.7508171932
 O          1.7808081027       -0.1833448059        0.0209869107
 H          2.5006908393        0.4507195084       -0.0567171281
 O         -1.9648426214        2.0666856353       -1.8927658845
 H         -1.5595964198        1.8147773599       -2.7503380866
 H         -1.8656324326        1.2756193466       -1.2877288882
 O          4.1750935819       -3.0600950813       -1.3656023603
 H          4.4993823896       -2.1391010644       -1.4824211865
 H          3.2751841517       -3.0197522270       -1.7169980199
 O          3.8076350528        1.4844045072       -0.2424328658
 H          3.8628257657        2.1157360687       -0.9910102751
 H          4.2009116004        1.9304815729        0.5350748285
 O          4.3325255036       -0.5218462400        2.0141410308
 H          4.2491258035       -1.4610330730        1.8218159765
 H          3.4481200465       -0.1853908550        2.2390065314
 O         -4.5053472575        2.2219086457       -1.2826602496
 H         -4.4295841877        2.7967382567       -0.4930008887
 H         -3.5892892488        2.2232632117       -1.6564333323
 O         -4.6351184861       -0.4042969683       -0.8221387045
 H         -5.1322187301       -0.6496668739       -0.0178890364
 H         -4.5604970198        0.5749103369       -0.8614340033
 O          2.0684970184        0.6421599006        3.0764668266
 H          1.8084780117        1.5554848252        2.8248260216
 H          1.2538164139        0.2374962971        3.4049546575
 O         -4.0336212929        1.1543780958        2.4368877698
 H         -3.9218762115        0.2336285377        2.1316167655
 H         -4.9461747131        1.3968725272        2.2166612267
 O         -1.5596050376        2.2829567280        2.0924069339
 H         -2.4998793316        2.1590205531        2.3009655477
 H         -1.5301638715        2.8962990007        1.3269898990
 O         -0.6510371179        0.0931196369        3.5455497344
 H         -1.3576631752        0.1344622370        4.2192933691
 H         -0.8655587500        0.8258318543        2.9444213075
 O          1.1144752986        3.0656734011        2.4508895874
 H          1.1853937736        3.2503478056        1.4978332175
 H          0.1706235516        2.9601017277        2.6268067097
 O          1.7406709961       -1.9999204254       -2.0433759144
 H          1.7237373508       -1.3736791932       -1.2898657903
 H          0.8582121437       -1.9842860357       -2.4624179064
 O         -3.0573394369       -2.2648330895       -1.9731034919
 H         -3.5573765515       -1.5333921012       -1.5613920795
 H         -2.6932459467       -2.7838753935       -1.2221340019
 O         -1.4101950778        3.9116382102       -0.0557838031
 H         -0.4483381392        4.0672626541       -0.0817644772
 H         -1.5827775458        3.3085583404       -0.8119458988
 O          1.3870882968        2.7260205257       -2.7702663693
 H          1.5589248422        1.7962269507       -3.0360523734
 H          0.5986340050        2.9772636723       -3.2570430002
 O         -0.6594759519       -1.8076405740       -3.1959704989
 H         -0.8557161497       -1.7529934838       -4.1320669164
 H         -1.5046576377       -2.0103705742       -2.7521644568
 O          0.6094502852       -4.0148142609       -0.3726140237
 H          0.9973050854       -3.5506316690       -1.1263187998
 H          0.9542842192       -3.5532509110        0.4170218454
 O          1.6366960497       -2.4815775384        1.6361650137
 H          1.6766221166       -1.6013293737        1.2223599174
 H          2.5521797984       -2.8036979971        1.6510726266
 O          1.2709026485        3.7475543159       -0.2124816441
 H          2.0713135088        4.2535563050        0.0335825559
 H          1.4104904710        3.3749661898       -1.0984921162
 O         -3.6778211486       -1.4539208486        1.8712843563
 H         -4.1213849451       -2.2120570277        1.4371558352
 H         -2.8596106075       -1.8037571039        2.2419350378
 O         -1.9879017332       -3.5621043056        0.1396441096
 H         -1.1150996436       -3.8937925721       -0.1580620790
 H         -1.8013445096       -3.1584926963        1.0006463884
 O         -1.0824131752       -2.4107686621        2.6315440242
 H         -0.2013013385       -2.7858398552        2.5140350202
 H         -0.9127404676       -1.5249975407        3.0225551561
 O          4.9182171902       -0.5291068470       -1.6280590136
 H          5.8875390105       -0.4045188659       -1.7300921982
 H          4.6029392984        0.1318412058       -0.9731930416
 O          1.8756983488        0.2438059088       -3.6992006943
 H          2.7538917347        0.3990344924       -4.0734902583
 H          1.9569638046       -0.5671215727       -3.1673524076
 O          6.4863832835        0.5492037902        0.7515595350
 H          5.6640299743        0.2894991294        1.2070210160
 H          6.8928356922       -0.2966547483        0.5165918305
 O         -6.7032313275        1.3719687326        1.7581890662
 H         -7.2783028577        1.9255436465        2.2853195221
 H         -6.9123168290        1.5806986175        0.8111744692
 O         -4.7901814149       -3.5694746262        0.6538731260
 H         -3.9413609586       -3.9995922000        0.4897969987
 H         -5.2274304097       -3.5271118748       -0.2198206049
 O         -6.5855076190       -1.2158485531        0.8522489799
 H         -6.3059078030       -1.9809933618        1.3600541143
 H         -6.6950360054       -0.4619187941        1.4517344250
 O         -7.2134385786        1.8238908736       -0.8063149539
 H         -6.3663391350        2.1678089669       -1.1219930784
 H         -7.3500833228        0.9840916748       -1.2800496680
 O          6.8147164427       -2.1638825774        0.1295185592
 H          6.0878460627       -2.4455084253        0.7003294446
 H          6.6283331245       -2.5356745679       -0.7360241268
 O          5.0484889847        2.7793638709        1.7711615715
 H          5.9746163744        2.5772531787        1.6143332672
 H          4.8309912099        2.3829308047        2.6509582990
 O         -3.0280881126       -0.4724696348       -4.3513728231
 H         -3.1460131671       -1.1195758727       -3.6477107879
 H         -3.8218718599        0.0902836993       -4.3157332451
 O         -7.0236614721       -0.7147751858       -1.9599197257
 H         -6.0941640352       -0.6643286450       -1.6348300707
 H         -7.5018882766       -1.1426627872       -1.2432517546
 O          4.1322332960        2.9379931225       -2.4568181824
 H          4.3332353021        2.2278456789       -3.0989233495
 H          3.2280423347        3.2127951618       -2.6621612000
 O          4.2587648067       -3.2457541409        1.2139468928
 H          4.4260899274       -4.1560260822        1.4583851519
 H          4.1792970023       -3.2290685965        0.2123955251
 O          4.5281059174        1.4467132225        4.0113878316
 H          3.5799738562        1.2466895676        3.9191100430
 H          4.9722061365        0.6340660613        3.7456401430
 O         -4.0189743747        3.9314315209        0.7353203587
 H         -3.0806316351        4.0818633855        0.5246755684
 H         -4.4427073341        4.7885997574        0.7326120082
 O         -3.0426503040        0.1757810391        4.7931080671
 H         -3.4561286224        0.6734592842        4.0610605686
 H         -3.4181544275       -0.7057822964        4.7568945303
 O         -0.8521356280        1.1803947767       -4.1330908411
 H         -1.5905642967        0.5744890853       -4.3395954942
 H         -0.0537918219        0.6406152920       -4.0686084784
 O          3.2961929779        4.7999905153        1.1755498248
 H          4.0330096800        4.1806959230        1.3076387367
 H          2.7844724156        4.7512374186        1.9880804379
 O          4.5783044628        0.6943703545       -3.9361567797
 H          5.4395754613        0.6307599682       -4.3502902386
 H          4.6491180660        0.1568397321       -3.1059735338
 O         -5.3149375758        0.9263793176       -3.7433112298
 H         -5.0959030982        1.5091567994       -3.0060666567
 H         -6.0828159583        0.4122642192       -3.4761359253
 O          6.7609559889        2.3770773456       -1.2806844632
 H          6.5688155745        1.8636176350       -0.4730233717
 H          5.9359930990        2.7785476730       -1.5766850117
 O         -5.6146102369       -3.3450614734       -1.9425140981
 H         -4.7159462366       -3.0996004707       -2.2181774883
 H         -6.2018232343       -2.6512678145       -2.2607955511
 O          7.4143180578        0.0441352952       -2.3441610910
 H          8.1474093136       -0.2863897689       -1.8238581449
 H          7.3048121993        0.9919821354       -2.0891342536
