  192

 H         -0.5425054112       -1.1597996588        0.9180873603
 C         -0.6112510051       -0.5412956738        0.0100749185
 H         -0.5391308395       -1.1969144471       -0.8712436600
 C          0.5103658647        0.5037878335       -0.0094871840
 H          0.3911098457        1.1518924073        0.8600966289
 H          0.3944399221        1.1152669956       -0.9056411630
 O         -1.7891825170        0.2100258093       -0.0077307041
 H         -2.5646581753       -0.3620747640        0.0026734602
 N          1.8637421187       -0.1172780950        0.0059475208
 H          1.9871272141       -0.7237037740       -0.8163106220
 H          1.9839787968       -0.6890763208        0.8531041604
 H          2.5930828886        0.6072400316       -0.0077051380
 O          4.9978490405       -0.9012490715       -1.6266286776
 H          5.9603253551       -0.7063476953       -1.6007726948
 H          4.6978839090       -0.8036792846       -0.7019971164
 O          1.6663288135       -1.7196339412       -2.1396230097
 H          2.3614660201       -2.0087422589       -2.7536784991
 H          0.8392804749       -1.6993630447       -2.6577771127
 O         -0.4997193470       -1.1524885894       -3.7541605390
 H         -1.3281721008       -1.4837212486       -4.1433266494
 H         -0.7435199944       -0.2898426735       -3.3761050510
 O         -2.5856337972       -2.3806369686       -1.8847612926
 H         -2.7543374242       -1.4213254466       -1.9174867155
 H         -3.3602317254       -2.7546379110       -2.3322320974
 O          4.3003804942       -0.8690154038        0.9878150936
 H          3.8778404550       -0.2993696980        1.6556384429
 H          3.9719162214       -1.7958550091        1.1160181263
 O          3.1491541420        0.9727535490        2.7254593718
 H          2.2184428631        1.2033904344        2.8157830583
 H          3.6344407210        1.8182132496        2.7367402906
 O         -1.0140459568        1.2260371733       -2.5207759600
 H         -1.4514323486        0.9797180994       -1.6871138152
 H         -1.3258509442        2.1216514494       -2.7435954264
 O          4.1643350173        1.5186060256       -2.5968455310
 H          4.3806614394        0.5752358991       -2.4791817215
 H          3.2627700957        1.5533504558       -2.9767514969
 O          0.6264227643        2.5589364509        2.5778927701
 H          1.2234959635        3.1227846817        2.0602465087
 H         -0.2245213807        3.0322061454        2.5952535061
 O          1.6168297061        1.4656758154       -3.4159173589
 H          1.7018853918        0.8239971411       -4.1611325860
 H          0.7361025542        1.2952062368       -3.0397935532
 O          1.0437366265       -3.2783616526        0.0168838984
 H          1.2249119737       -2.8600481244       -0.8462629533
 H          0.3499756057       -3.9130931441       -0.1819884048
 O         -3.6295477261        0.1549391126       -2.1339751216
 H         -3.5621822454        0.8817136889       -1.4817712595
 H         -4.5576101642       -0.1252816776       -2.1191925840
 O         -3.5780818929        2.1963036968       -0.4144935672
 H         -3.4307323880        1.7799067733        0.4564446775
 H         -3.0076734540        2.9955548456       -0.3996861587
 O         -1.9420805688        3.6131659432        2.5437752676
 H         -2.4109107020        4.0463418909        3.2572356585
 H         -2.4093913661        2.7498869903        2.3959208524
 O         -3.0372217217        1.2581204725        2.1020758531
 H         -3.7950890108        0.9897578410        2.6458242547
 H         -2.2972840777        0.6635697226        2.2967949273
 O         -0.6836707629        0.1927970851        3.2602619001
 H         -0.0030065556       -0.4735763073        3.0761557651
 H         -0.2485706420        1.0462147914        3.1253348556
 O         -3.8918326165       -1.2985074005        0.3783151041
 H         -4.5651251868       -0.5945753102        0.4880657437
 H         -3.6158686328       -1.5666208141        1.2800594640
 O          1.4728977672       -1.4263696797        2.4274826603
 H          2.1362082717       -1.7940807880        3.0287100306
 H          0.8480967182       -2.1527050481        2.2439695712
 O         -3.1885702395       -2.1158184327        2.8029358546
 H         -2.2487158257       -2.3436112662        2.8753586012
 H         -3.6805227548       -2.9618046316        2.6463179121
 O         -2.0345693971       -3.8470077867        0.3527352580
 H         -2.2465319071       -3.2663620258       -0.4055809216
 H         -2.8668930140       -4.2180280849        0.6576388609
 O          3.6925124370        1.8481443724       -0.0561654863
 H          3.8520998264        1.9144860212       -1.0286487587
 H          4.5754727263        1.7853197125        0.3618749282
 O          6.1689516757        1.8884270312        0.9678508230
 H          6.5297335822        1.0584440003        1.3334931781
 H          6.6257144689        2.0749182366        0.1349200833
 O         -5.4885531072       -3.2865798122       -0.3673681851
 H         -6.3134808815       -2.8684828468       -0.0615949181
 H         -4.8114947111       -2.5849357786       -0.2302383455
 O         -5.7336831388        0.5647925921        0.6024541922
 H         -5.5758610950        1.3037303415        1.2342218999
 H         -5.9975143424        0.9673097485       -0.2335013445
 O         -2.1162816918        4.3740424765       -0.0770638000
 H         -2.0968072698        4.2873358334        0.8944825694
 H         -1.2115849567        4.0786010157       -0.3360292468
 O          0.2913322458        3.4963398665       -0.6725653609
 H          0.9744153383        3.8158502043       -0.0777089120
 H          0.5740976314        3.7281773521       -1.5836879335
 O          3.4706116426       -3.3588331482        1.0814960611
 H          2.5505108613       -3.4185813998        0.7384137288
 H          4.0478628073       -3.6672542995        0.3442563462
 O          6.6109227184        2.4310515633       -1.7653479085
 H          6.9886368946        3.1766884254       -2.2316260885
 H          5.7432022771        2.2559425542       -2.1732348860
 O         -0.6443713064       -3.1568330387        2.4735076100
 H         -1.0643535905       -3.3874786207        1.6058326131
 H         -0.5011581348       -3.9903022917        2.9223583995
 O         -6.3377900984       -0.2086833629       -2.3080512238
 H         -7.2122430759       -0.2758916698       -1.8838344615
 H         -6.3641902744        0.5880747797       -2.8666411891
 O         -6.0613848361        2.9226825231       -1.0228211876
 H         -5.1341181875        2.6685058483       -0.8105469550
 H         -6.1528816676        2.7969440014       -1.9784687102
 O          2.5423879458        3.9294660785        1.0320929956
 H          3.1582760372        4.1496976250        1.7408922517
 H          2.9244401690        3.1082722084        0.6272408107
 O         -5.3705420443        2.6811444581        2.2078782116
 H         -5.2065936194        3.5152556949        1.7199363039
 H         -6.1863295626        2.7931095352        2.6986176263
 O         -4.8835743535       -0.1971047278        3.6436329879
 H         -4.4159261030        0.1874528684        4.4005711195
 H         -4.2959762675       -0.9239282983        3.3565932371
 O          4.6620289332        3.2691531886        2.7482882151
 H          5.3297859161        2.9112938001        2.1326478934
 H          5.1072927120        3.4186973721        3.5830317864
 O         -2.7118795205        0.5740340410        5.1081511842
 H         -1.9830153289        0.3978466844        4.4870629171
 H         -2.4229539327        0.2550991536        5.9618963566
 O          7.5521306666       -0.1470020228       -1.4309195335
 H          7.3954067568        0.7502331559       -1.7617994174
 H          8.1450522727       -0.0230301855       -0.6642643964
 O         -4.6959311704       -4.1515321522        2.0977753288
 H         -5.0207695072       -4.0414921519        1.1810612280
 H         -5.4417664331       -3.8487036732        2.6505835894
 O         -3.5098967491        1.6312038371       -4.3375618892
 H         -2.9347961288        2.3907785813       -4.1970234739
 H         -3.3723293284        1.0323058739       -3.5659382045
 O         -1.7537176192        3.7585800952       -3.1164656329
 H         -2.0293447326        4.2245687776       -2.3205379684
 H         -0.8720901435        4.0902359150       -3.3385684105
 O          6.6865770883       -0.6020972503        2.0591306692
 H          5.8641906351       -0.7901386920        1.5479507834
 H          6.3537434623       -0.5798691986        2.9803269345
 O          5.0837130484       -3.6444484266       -0.9944726718
 H          5.9636773812       -3.6244513926       -0.5815278679
 H          4.9661835844       -2.7499371937       -1.3509031143
 O         -6.0004983848        2.1313860623       -3.6612115506
 H         -6.5108599418        2.4050270518       -4.4208514513
 H         -5.0672419051        1.9950773820       -3.9783995828
 O          5.0141275123       -0.5729643514        4.1421781379
 H          4.5932148052       -1.4455091116        4.1545347147
 H          4.3186592769        0.0336913679        3.8474818934
 O          3.7749362213       -2.2427180790       -3.7622936089
 H          4.3753892781       -1.7485390892       -3.1844796470
 H          4.0928507519       -3.1474051313       -3.7872818370
 O          1.1004055287        4.1001110090       -3.1457974318
 H          1.9262254902        4.4900576676       -2.8197336117
 H          1.3443594695        3.2048238897       -3.4540529571
 O         -6.5958922089       -2.5578704733        3.2408458533
 H         -6.1356412876       -1.7723551058        3.5594116826
 H         -7.0152210788       -2.3041819066        2.4024939695
 O          3.2501002380        4.8332231426       -1.5358290888
 H          3.6912207285        5.6813686702       -1.5471111781
 H          2.9918579593        4.6601924644       -0.6150238795
 O          3.4890925441       -2.8775216454        3.7042409109
 H          3.5999944939       -3.2147892675        2.7905830677
 H          3.4842936861       -3.6390005853        4.2834921733
 O         -5.1122829322       -2.6164501982       -3.0061785719
 H         -5.3613122665       -3.1335833608       -2.2201469362
 H         -5.6300543935       -1.7996004222       -2.9217643553
 O          1.7626409859       -0.5302022188       -5.1328959085
 H          2.4497534260       -1.1678610328       -4.9130990916
 H          0.9130570201       -0.9045292457       -4.8281477504
 O          7.3688683380       -2.6788562488        0.1465919821
 H          7.2742722611       -2.1442965416        0.9449901651
 H          7.6936234392       -2.0906211972       -0.5420588148
 O         -7.3419940422       -1.6118323901        0.7644526498
 H         -6.7775491672       -0.8144824483        0.8129701532
 H         -8.0730282429       -1.3513543465        0.1883378247
 O         -8.7494970456       -0.0951180040       -1.0375341756
 H         -9.6138382938       -0.0334290535       -1.4421550572
 H         -8.6402156063        0.7209993749       -0.4768377855
 O         -8.2785332766        2.0052734040        0.4614704900
 H         -7.9675341441        1.6823664941        1.3240836671
 H         -7.5469326880        2.4901598841        0.0472898259
 O         -0.2652712101       -3.7818964428       -2.4373477740
 H         -0.4205240593       -4.3042819422       -3.2234433761
 H         -1.0645293209       -3.2425238134       -2.3106956329
 O         -4.9608386105        4.8547203640        0.6619148787
 H         -4.0714483990        4.9551519467        0.3062260083
 H         -5.5122841159        4.5099108926       -0.0558066534
 O          8.9800181373        0.1957522515        0.8407217479
 H          9.8167549051       -0.2138776381        1.0607914217
 H          8.3222334542       -0.1279849129        1.4786658116
 O         -7.4264429867        0.8527225761        2.9011002145
 H         -6.5424034304        0.5269165741        3.1339945671
 H         -8.0516582910        0.1902971129        3.1980252066
 O         -3.0311077409       -1.5181330504       -4.7231740688
 H         -3.3213102463       -0.6325177726       -4.9574680471
 H         -3.7757692794       -1.9565445112       -4.2908335135
