  221

 H          0.4630927088        1.1941025329        0.8323452968
 C          0.5529035771        0.5095402446       -0.0251092035
 H          0.4633421180        1.0989800601       -0.9466436106
 C         -0.5779259333       -0.5149488592        0.0205351883
 H         -0.4518492553       -1.1270258218        0.9278134334
 H         -0.4840892684       -1.1748678627       -0.8448928490
 N         -1.8603253880        0.1647702435       -0.0623309454
 H         -2.6131021658       -0.5138473264       -0.0751527670
 H         -1.9956541848        0.7570092284        0.7508171964
 O          1.7808081014       -0.1833448051        0.0209869106
 H          2.5006908396        0.4507195090       -0.0567171275
 O         -2.2561254311        1.2810672933       -2.3429803769
 H         -1.3808460371        1.4572377425       -2.7334549419
 H         -2.0692207656        0.9141932771       -1.4133197480
 O          1.2568025430       -0.8780585083       -3.1601208316
 H          0.4814508249       -1.3267526986       -3.5624618614
 H          1.7950169377       -1.5758830572       -2.7466986121
 O          4.4003021217       -0.1117393539       -1.9008893363
 H          4.1401004470       -0.2381131389       -2.8325688927
 H          4.1659152926       -0.9097400759       -1.3874429143
 O         -2.8332098429       -1.4785004449       -2.4228600998
 H         -2.7345185747       -0.5114405294       -2.4292255022
 H         -3.7881908680       -1.6560322792       -2.4546720939
 O          2.1102536176        3.2296494650       -2.2010813649
 H          2.5560124372        2.7446986041       -1.4728216287
 H          2.7490943442        3.1564946748       -2.9539961565
 O          1.4840543102       -2.6332595911        1.0608898829
 H          1.0481999920       -3.1532685165        0.3601040087
 H          1.6696058268       -1.7463274783        0.6925010995
 O         -0.9392374050       -1.9929757354       -4.2183377148
 H         -1.6294314338       -1.8738334832       -3.5311279373
 H         -1.0978599565       -1.2585706293       -4.8511750000
 O         -4.8274355013        0.8121443171       -0.2954161179
 H         -4.2287708078        1.1406132875        0.4017925522
 H         -5.1028100771        1.6167332215       -0.7879707395
 O          0.2229940634        1.6643262749       -3.4000164198
 H          0.6221860666        0.7849427306       -3.2890640304
 H          0.8861063418        2.2841457430       -3.0348536729
 O         -5.5301131938       -1.7921625640       -2.5146448169
 H         -5.6739605839       -1.0608237537       -3.1338114863
 H         -6.4032262727       -1.8780606710       -2.0680575879
 O          4.1660834539       -2.0465109416       -0.0442204774
 H          3.7478371855       -2.9181140789       -0.1298669283
 H          3.8772519560       -1.6606702656        0.8046495572
 O          3.5405520924        1.8553398453       -0.4194032211
 H          4.2979310440        2.0333459935        0.1641047400
 H          3.8941248403        1.2363299674       -1.0924568058
 O         -2.6392186740        3.4848887776       -0.7425615350
 H         -1.7250721795        3.8095159564       -0.8462440887
 H         -2.7620316083        2.8532419028       -1.4715158096
 O         -0.1054846059        4.2895111918       -1.0423701609
 H          0.1882071915        4.2095447045       -0.1143741322
 H          0.6290376197        3.9296630210       -1.5641262162
 O          3.3696249883       -0.8568318910        2.2864890867
 H          2.8608182124       -0.0258807587        2.1971494759
 H          2.9869472031       -1.3697643159        3.0308802798
 O         -3.2338269592        2.1965205058        1.4472614954
 H         -4.0212186365        2.7013796476        1.7305027522
 H         -2.9478046987        2.6858867784        0.6307349313
 O         -1.4190284052        3.5296109839        2.9234459711
 H         -1.9397201856        2.8549259349        2.4350155250
 H         -1.8697075630        4.3578429489        2.6686184425
 O          0.8693442223        3.8065077113        1.4207106688
 H          1.3733513400        2.9825493715        1.5807945112
 H          0.0973106080        3.7793338974        2.0168466551
 O         -1.9261919609       -3.0729027387       -0.2149978462
 H         -2.6482170233       -3.4734075326        0.2892167395
 H         -2.3293720425       -2.6644256675       -0.9947223116
 O         -4.3904750509       -1.8190013136        0.1096167223
 H         -5.1762834267       -2.1254393872        0.5992962604
 H         -4.6581722377       -1.0334666217       -0.3860918571
 O         -0.0485106578       -2.4648315151        3.2249320699
 H          0.4791855195       -2.4929218121        2.3945421640
 H         -0.6795826133       -3.2029922524        3.1360282242
 O         -1.0578481277        0.0002647820        3.5965124950
 H         -0.5984479664       -0.8615616904        3.5780839037
 H         -1.8096470251       -0.1304090393        2.9930613280
 O         -1.7280874709       -4.5748284086        2.8430145877
 H         -2.4252873137       -4.6700230387        2.1763755006
 H         -0.9758849217       -5.1194442039        2.5281816167
 O         -3.2511458039       -0.9567062672        2.3400804263
 H         -3.2203444647       -1.6789414571        2.9926909086
 H         -3.5845457987       -1.3473824563        1.5015253630
 O         -4.8587630049        0.6746425036        3.6722529677
 H         -4.2877905257        0.1816619278        3.0386261243
 H         -4.2227504016        1.1937998538        4.2085145184
 O          2.3246277439        1.6601019365        2.2655511457
 H          1.8171589937        1.7431096715        3.1021987067
 H          3.1099521262        2.2329068473        2.3422373077
 O          5.8887675176        1.6983803822        1.0177635358
 H          6.2856992101        1.1802152124        0.2971575760
 H          5.8365887349        1.1007216743        1.7954952743
 O          6.8936312889        0.2410257867       -1.1509200677
 H          7.0620398455       -0.6943202864       -0.8664001307
 H          5.9566446323        0.1783257938       -1.4576814584
 O         -6.4265331037       -2.4046006653        1.7519178309
 H         -6.2230203901       -2.2970014451        2.7127657919
 H         -6.8888444360       -1.5877283707        1.5006950740
 O         -3.0611190878       -2.7858751822        4.3670091966
 H         -2.6559512549       -3.5653317746        3.9453323469
 H         -2.4175330860       -2.4502664627        4.9938060517
 O          4.3196401449        3.5170186089        2.3863927764
 H          5.0371546202        3.1509482609        1.8425199592
 H          4.0011965109        4.2920965871        1.9160841445
 O         -7.1460680771        0.0629646537        0.6557426115
 H         -7.2894013149        0.6836773697        1.3934161821
 H         -6.2285483034        0.2788886006        0.3374083662
 O          3.9186838267        2.6288592502       -3.9970489064
 H          3.7905602787        1.7043376802       -4.2490681056
 H          4.7369959860        2.6705096593       -3.4669558336
 O          6.8314608400       -2.2479886056       -0.3462549210
 H          7.2157911372       -2.1601681075        0.5446577395
 H          5.8616918967       -2.2625846209       -0.2015315652
 O          2.4520654446       -2.4092967105        4.2761380578
 H          1.4899728422       -2.4171602701        4.1226643245
 H          2.7538727434       -3.3001120712        4.0652844882
 O         -6.9923910250        1.8227339859        2.6873401349
 H         -6.1726191380        1.4133661056        3.0754977454
 H         -7.5935006941        1.9622014532        3.4180547315
 O         -1.3795651584        0.3295325356       -5.4595162176
 H         -2.2780254442        0.6784300556       -5.3400145380
 H         -0.7908120648        0.9436521852       -5.0046773527
 O         -2.7526535149        1.8380998735        4.8529312906
 H         -2.1192308253        1.1327269538        4.6487628177
 H         -2.3990674001        2.6290526570        4.4254294008
 O         -7.9170204506       -1.8441407644       -1.3113042981
 H         -7.8955342773       -2.7696240044       -0.9837457532
 H         -7.8197460826       -1.2877315695       -0.5289658996
 O          3.0843001959       -4.4369863473        2.2559859168
 H          3.9734263283       -4.1055549137        2.4610840007
 H          2.5821865756       -3.6642408696        1.9246796153
 O          0.3012303497       -4.3281812398       -0.6989037928
 H          0.3753198963       -4.3279114632       -1.6757639936
 H         -0.5870451852       -3.9289828657       -0.5153473057
 O         -4.3227283567        3.8277262509       -3.4083332383
 H         -4.2433467389        3.0618634494       -4.0021758205
 H         -3.4182155747        4.1746272212       -3.3458615639
 O         -3.8026670714        1.3462820517       -4.5164390429
 H         -4.6754815387        0.9767590919       -4.3220260747
 H         -3.3077601308        1.3205322207       -3.6739913990
 O         -5.4465381398        3.7252767985        1.4124693302
 H         -5.5642098613        3.6466437443        0.4495734505
 H         -6.1502353144        3.1994633777        1.8225236269
 O          5.6275231930        0.1225711845        3.1629995828
 H          5.3232774135        0.7105633242        3.8742134765
 H          4.8050122706       -0.3152891875        2.8274099900
 O         -5.7216933995       -1.8785548981        4.2450102243
 H         -5.5086489204       -0.9281012648        4.2176571750
 H         -4.8912190606       -2.3266140640        4.4549668236
 O          0.6588617945        2.0013208883        4.2960225613
 H          0.0991108028        1.2206779810        4.1321440058
 H          0.0932612375        2.7542566419        4.0871871621
 O          5.3759755709       -3.0976424557        2.9147302022
 H          6.2506967849       -2.8465876450        2.5971504276
 H          5.1690251023       -2.4969788647        3.6345928442
 O          3.1018141088       -4.6048234515       -0.4590103092
 H          3.2917659833       -4.8601190332        0.4615552519
 H          2.1532915322       -4.7526361175       -0.5731653847
 O          2.8670346111        5.0418759563       -0.0699707390
 H          2.5617950898        4.7470137231       -0.9392590462
 H          2.1858915086        4.7471008111        0.5543276846
 O          4.2569261018        1.9303897038        4.7089377350
 H          4.3240510874        2.6758487370        4.0960218354
 H          3.3382632163        1.8718689287        4.9819398184
 O          0.5524098958       -4.1546506705       -3.3710885355
 H          0.0374787877       -3.4544507115       -3.8035540176
 H          1.4754780734       -3.8565228717       -3.3891162222
 O          2.9803903404       -2.9515593779       -2.7292796117
 H          3.8929894402       -2.7600882993       -3.0229648707
 H          3.0957890184       -3.5641032672       -1.9906506507
 O          5.5798678517       -2.4182812575       -3.2120093081
 H          6.1077416086       -2.6467573837       -2.4403942136
 H          6.0054814158       -1.6340711261       -3.6030201606
 O         -6.3288218383        0.5050344464       -3.7601608267
 H         -6.9399224834        0.4805006216       -4.4957876844
 H         -6.8391595302        0.8177955135       -2.9800015022
 O         -7.3108758835       -4.1945123646       -0.1941335034
 H         -6.5069833874       -4.4792677278       -0.6494494199
 H         -7.0320581139       -3.7777912881        0.6350020218
 O         -4.7422789757       -4.3352151195       -1.4119450840
 H         -4.9412758110       -3.4394547972       -1.7235336551
 H         -3.9669125194       -4.6099472145       -1.9249717108
 O         -5.7228588948        3.0908692626       -1.2966621836
 H         -5.1712658725        3.4469516517       -2.0397940361
 H         -6.5975134069        2.9208471604       -1.6556272377
 O          6.0751271620        2.7215672063       -2.3370535230
 H          6.6034318869        2.0196028744       -1.9463400634
 H          5.8205635065        3.2954019818       -1.5888932312
 O          7.6162806953       -1.4596068642        2.1540545564
 H          8.2932677424       -0.8350336042        1.8457136410
 H          6.9691230658       -0.8956987750        2.6135959823
 O          8.7630386945        0.7913739336        1.0155546129
 H          8.2374369583        1.5101448533        1.3801297152
 H          8.4653403622        0.6778113564        0.1055940374
 O          0.4732961852       -5.6703887390        1.7622278130
 H          0.4019455128       -5.3521966787        0.8497266892
 H          1.3531144594       -5.4287461399        2.0746646065
 O         -3.9594882407       -4.4196577105        1.1658493933
 H         -4.6846248280       -4.0490887850        1.6739687407
 H         -4.2885039191       -4.5100098399        0.2451279655
 O         -3.0603623508        5.2336543437        1.5968838658
 H         -3.9805009131        4.9633833171        1.7155361676
 H         -2.8693263294        5.0546670470        0.6693000262
 O         -7.9570210193        1.2014096572       -1.7212353424
 H         -7.6837418742        0.8480190730       -0.8496822813
 H         -8.7252286067        0.6821936662       -1.9676382633
 O          3.4848105245       -0.1445478230       -4.4316868517
 H          3.8032237598       -0.8627667267       -4.9796094407
 H          2.5814489228       -0.3823069801       -4.1241915823
 O         -2.4140095685       -4.5272703951       -2.9291954288
 H         -2.4169694328       -3.8605802834       -3.6203775841
 H         -1.5230484154       -4.8867920225       -2.9070440622
 O          6.7935812118       -0.0623424999       -3.9425819385
 H          7.1436898692        0.1074383326       -3.0543569098
 H          6.3760962194        0.7532358906       -4.2277947517
 O          5.4379902062        4.3163880198       -0.2217311519
 H          5.9326394629        5.1274836327       -0.3274307837
 H          4.4898521409        4.5670249529       -0.2018386520
 O         -1.5685894855        4.2225256335       -3.4872615684
 H         -1.0428110354        3.4806891175       -3.7979759998
 H         -1.1042788042        4.5856108765       -2.7250211105
