  76

 H          0.0000000000        0.0000000000       -0.0000000000
 O         -0.1793918683        0.2913472468        1.3197693984
 H          0.5082042406       -0.2617914102        1.7577668623
 H         -0.0238830906        1.2291615317        1.5924748545
 O          0.0834796253        2.7703799121        2.1622171178
 H          0.7673334497        3.3734465271        1.8605999951
 H         -0.7523341896        3.1618090970        1.8281011996
 O          1.7072524124       -1.2585506034        2.3951129083
 H          1.3859553564       -2.0821205734        2.7697044465
 H          1.9736716561       -0.6819097872        3.1232165956
 O         -1.6553661824       -1.1992976458       -2.6963812668
 H         -1.1827221082       -1.1218255095       -3.5308429725
 H         -1.6914314600       -2.1409941928       -2.4841272781
 O         -0.5588874041        1.6647163034       -2.6360687657
 H         -0.8550491091        2.2500006446       -3.3330191293
 H         -0.0082538736        0.9596716033       -3.0707758366
 O          0.2526255934       -0.4145338173       -0.9798462910
 H          0.8555088584       -1.2414326466       -0.7901792951
 H         -0.5370111137       -0.6960398580       -1.5148381721
 O         -1.0129807472       -3.2812587310       -0.9278274482
 H         -0.5448608588       -3.7147753015       -0.2038378293
 H         -1.5855349422       -2.6190272243       -0.4839492672
 O          1.7528434711       -2.3243530396       -0.3220971357
 H          1.3604245745       -2.7465185179        0.4564445988
 H          2.5465465885       -1.8398213627       -0.0193255785
 O          2.8520605943        1.4115070285        1.4269891241
 H          2.3817558901        1.3222085863        2.2730112363
 H          2.2248541228        1.7456892918        0.7676137608
 O          1.4515517852        2.1072032297       -0.8475278921
 H          2.1967244109        1.7078301595       -1.3289332131
 H          0.6771013003        1.9253023842       -1.4094924985
 O         -2.3219146944       -1.3249159726        0.3306994741
 H         -1.9125318768       -1.3923627860        1.2105104559
 H         -2.2578749125       -0.3927701642        0.0692087610
 O         -2.2660116351        1.3424674964       -0.5361191893
 H         -1.5999481486        1.4668588834       -1.2377240265
 H         -3.0755609640        1.0871758287       -1.0281647496
 O          3.3150329353        0.5737699832       -2.1367011967
 H          3.5313226955        0.0209960651       -1.3563669016
 H          4.1454713473        0.8580533143       -2.5186051646
 O          3.8104281709       -0.6823179437        0.2105937892
 H          3.4537301688        0.0751178604        0.7548381981
 H          4.6578553900       -0.9132392107        0.5904572324
 O          1.0612601293       -0.1303320189       -3.6625161257
 H          0.9795746067       -1.0860655430       -3.4822718308
 H          1.9017929550        0.1271364225       -3.2541258981
 O         -1.0537806317        0.5819696134        3.9888936960
 H         -1.6415704295        0.9914544357        3.3147414696
 H         -1.5050031755        0.6620675014        4.8287421336
 O          0.7500069515       -2.7388629639       -2.9495106124
 H          1.5889931353       -3.1889400782       -2.8487008149
 H          0.1949410486       -3.0402378068       -2.2047237048
 O          1.6252078192        1.0247585124        3.8715263408
 H          0.6479601530        0.9858836354        3.8919028258
 H          1.8734601796        1.8071260143        4.3629926302
 O         -1.4114990005       -1.9011194932        2.9206335858
 H         -2.3792681343       -1.8672080792        3.0540675624
 H         -1.0886288629       -1.0739816172        3.3231560952
 O         -2.8616280135        1.4890877717        2.2121204447
 H         -2.5488364277        1.3656367153        1.3005905250
 H         -3.0689590773        2.4253833333        2.2825256068
 O         -4.0298765105        0.1095443458       -2.0588748593
 H         -3.2939786854       -0.3919311852       -2.4467227693
 H         -4.6445754915       -0.5329751986       -1.7030105996
 O         -1.9938794463        3.7910441190        0.7990188592
 H         -1.3020292898        4.3382368644        0.3946862518
 H         -2.1949239880        3.0986881796        0.1501310655
 O          0.1852555285       -3.6190762875        1.6244873699
 H          0.1189728829       -4.4852196274        2.0261211927
 H         -0.4553990125       -3.0419403305        2.0908468261
 O         -3.9384055663       -1.0474280253        2.7698304040
 H         -3.7532230513       -0.1018299794        2.6640632331
 H         -4.2426588795       -1.3600823723        1.9145607675
 O          0.4806106498        4.5001495598       -0.1441584425
 H          0.9204275466        3.6598646328       -0.3789251333
 H          0.6830731956        5.1053396548       -0.8546540498
