  192

 H         -0.5425054103       -1.1597996565        0.9180873614
 C         -0.6112510075       -0.5412956741        0.0100749168
 H         -0.5391308384       -1.1969144462       -0.8712436613
 C          0.5103658620        0.5037878339       -0.0094871831
 H          0.3911098463        1.1518924078        0.8600966296
 H          0.3944399231        1.1152669960       -0.9056411618
 O         -1.7891825160        0.2100258080       -0.0077307028
 H         -2.5646581763       -0.3620747656        0.0026734612
 N          1.8637421215       -0.1172780940        0.0059475197
 H          1.9871272145       -0.7237037729       -0.8163106228
 H          1.9839787979       -0.6890763202        0.8531041610
 H          2.5930828904        0.6072400333       -0.0077051365
 O          4.1994468952       -1.1659664089       -0.7656241871
 H          4.4428140607       -0.6208629053       -1.5465360448
 H          5.0151855902       -1.3210035878       -0.2842128401
 O          1.6574948342       -2.1054998696        1.7735253426
 H          1.6146394336       -2.8443973675        1.1260113291
 H          2.2342696216       -2.4009719339        2.5107809373
 O          3.4201322817        1.9413857201       -0.4870471205
 H          4.3588995361        1.8091923767       -0.2474377671
 H          3.3946645637        2.3045411450       -1.3941001854
 O          2.5300567149        0.8533290349       -4.0356260674
 H          2.7308670503        1.7100395916       -3.6188789993
 H          1.7824496708        1.0272690936       -4.6188184609
 O          2.3656082554        3.7205782956        1.1785006671
 H          1.6202713129        3.3775982161        1.6835219459
 H          2.6835731157        2.9866924359        0.6078364717
 O         -1.8444130310        0.6025106278        2.8133884956
 H         -2.0807445846        0.6527784380        1.8714797553
 H         -1.2712808723       -0.1857493031        2.9123459870
 O         -3.6556444234       -1.4492073529        1.0954013115
 H         -4.5598435309       -1.5353294833        0.7796019156
 H         -3.7180591511       -1.4503797199        2.0667537658
 O          2.0451825002        1.2747472482        3.9627025933
 H          1.3154294744        1.7947597205        3.5883357568
 H          1.6786519389        0.5027893652        4.4259102156
 O          1.6691118010       -4.1127301666        0.0516287969
 H          0.7957337378       -4.3091351866       -0.3266084448
 H          2.2114274451       -3.8593494221       -0.7315543438
 O          5.0637061548       -1.4957817006        2.3321095869
 H          4.4686709788       -0.7184873013        2.1115772212
 H          5.7926310725       -1.4444244060        1.6916663285
 O          3.6861321439        0.6516789200        1.9660714269
 H          3.0466659537        0.8016726229        2.6907528383
 H          4.2271599998        1.4693665145        1.9564485922
 O         -3.7029240468       -1.0589347426        3.8195221732
 H         -3.1846252230       -1.7843528410        4.1765854597
 H         -3.0823071208       -0.3180374100        3.6529694100
 O          0.0545665400        2.5029071617        2.5297208895
 H         -0.4734535011        3.2181889800        2.1201609521
 H         -0.6325495987        1.8619205930        2.7978958991
 O          0.5081315354        2.6496057819       -2.3014660341
 H          1.0565646716        3.4115097751       -2.0326287117
 H         -0.3805297523        2.8225482536       -1.9445840134
 O         -2.1215970683       -3.7338723707        3.2737447327
 H         -1.4183874608       -4.3608886615        3.4796206851
 H         -2.2577729121       -3.8279655583        2.2983434218
 O          1.6031155310       -1.1417162621       -2.4903345591
 H          2.0147829157       -0.4276542556       -3.0250429998
 H          2.0870234099       -1.9596630710       -2.6663255238
 O         -0.4775790734       -1.6480366974        3.2625596191
 H         -1.0694544574       -2.4341835420        3.3088002443
 H          0.2622371461       -1.8944192015        2.6589629088
 O         -1.9333095617        2.6964018688       -1.1568324508
 H         -2.8022098754        2.8593020116       -1.5702352129
 H         -1.9440727296        1.7724530479       -0.8476490723
 O         -3.2475444219       -0.2431294553       -3.6765288437
 H         -2.3263644689       -0.5580421658       -3.7812398868
 H         -3.1993674500        0.6848539983       -3.9650772009
 O         -0.6492069237       -0.8786576565       -3.9497453474
 H          0.0785546154       -1.0075782042       -3.3122130912
 H         -0.4558434479       -0.0053634728       -4.3577909856
 O         -2.9703855460       -1.9042861215       -1.4904128006
 H         -3.1270120170       -1.0548305193       -1.9339681315
 H         -2.4533441479       -2.4461410994       -2.1150456830
 O         -2.5151273783       -3.8470036605        0.6644498372
 H         -2.8306731545       -2.9268451832        0.5421826608
 H         -1.8421619935       -4.0236665649       -0.0134692238
 O          6.9713355116       -1.6445439743       -2.2304806696
 H          6.5834484667       -2.5334483691       -2.1362362238
 H          6.3007612435       -1.1009683230       -2.6811757095
 O         -1.6526534871       -3.3494238810       -3.3986115233
 H         -2.5293310185       -3.4147479383       -3.8393861844
 H         -1.1914845637       -2.6163334890       -3.8347544613
 O         -0.7063491539       -4.6070856649       -1.2424942084
 H         -0.8533320281       -5.5399727071       -1.4055185942
 H         -0.9665684182       -4.1469911044       -2.0690015702
 O         -5.4689801280       -2.7570030867       -1.6463185900
 H         -5.5083021087       -3.5699950391       -1.0933821842
 H         -4.5321763807       -2.4519133330       -1.5356173757
 O         -4.3306224337        0.6106193081       -0.9616692061
 H         -5.0788787911        0.0638208352       -0.6806007129
 H         -4.0898664245        1.1319299739       -0.1662368290
 O         -6.3538509593       -0.9708707424        0.1390344562
 H         -7.0042289678       -0.3679311227       -0.2541638752
 H         -6.2381478548       -1.7110074905       -0.4985391860
 O          3.1977697200       -3.2835775024       -1.9747218541
 H          3.9352811215       -3.8574828837       -2.2042617605
 H          3.6115545849       -2.5297553982       -1.4821012293
 O         -4.3969970771        2.8965794316       -2.2651755149
 H         -4.5010591005        1.9706512082       -1.9364590359
 H         -5.0188564668        3.4117900158       -1.7378372868
 O         -0.1569012777        1.6453124223       -4.6697791986
 H         -1.0445705800        1.9932423584       -4.8140075068
 H          0.1337493864        2.0497930603       -3.8195281162
 O          4.9736405303        0.0780288628       -2.9819886421
 H          4.2433634838        0.2299974116       -3.5949756648
 H          5.4049544807        0.9574521663       -2.8509829012
 O          5.9713156536        1.5177402550        0.0895960936
 H          6.2428997719        0.5817702126        0.1276019776
 H          6.3110579992        1.9297174814        0.8995874576
 O          5.8074818244       -3.9680077244       -1.3969015274
 H          5.3717012549       -3.9087505846       -0.5157772228
 H          6.4846950102       -4.6365291550       -1.3074492075
 O         -4.1406210980       -2.9291062666       -4.2180094949
 H         -4.7843457378       -3.0961072364       -3.5162813468
 H         -4.0509562212       -1.9682659120       -4.2895153621
 O          6.8871861659       -1.0403492473        0.3258561520
 H          7.0181763286       -1.3089478253       -0.6203378986
 H          7.7358454742       -0.6575462011        0.5986225786
 O          4.8179812342        3.1035132930        2.2920388242
 H          4.6938268198        3.0045274321        3.2621269915
 H          4.0557594396        3.6130700161        1.9746743918
 O         -5.1224505676       -4.6115811331        0.2068814684
 H         -4.1547954279       -4.5593030574        0.2938350898
 H         -5.4490370547       -4.2718869430        1.0505068849
 O         -6.0110805811       -0.4449663355       -3.1459715657
 H         -6.0315232551       -1.3332659857       -2.7632243175
 H         -5.0740923333       -0.2333857608       -3.2680131235
 O         -7.4394392180        0.9828515101       -1.4435569500
 H         -8.2854262948        1.1989913989       -1.8353536255
 H         -6.9024385405        0.5522286946       -2.1561785074
 O         -6.2142251776        3.1406429955       -0.1845781014
 H         -6.6424433659        2.3875060408       -0.6307925456
 H         -6.7164082043        3.2500252494        0.6387902073
 O          4.4741391704        2.2729233562        4.7874325166
 H          5.0432568263        1.4941118936        4.7313256989
 H          3.5614569953        1.9603999256        4.6835625019
 O          6.2341101354        0.1448858480        4.0781463464
 H          5.7903974948       -0.5156945267        3.4972540231
 H          6.9094823804       -0.3245854076        4.5646853202
 O         -1.7844242794        3.9371475700        1.1981206195
 H         -2.6045948570        3.6424202621        1.6099074771
 H         -1.7842005841        3.4754906338        0.3294189603
 O         -4.0683844817        2.1759561600        1.1952652149
 H         -4.7677157875        2.7089531675        0.7678320876
 H         -4.5375173048        1.6199574572        1.8393525487
 O         -2.9586039350        2.3552728294       -4.4694911773
 H         -3.4399968422        2.7334564307       -3.7104805754
 H         -3.4989330467        2.5239780896       -5.2402970072
 O         -5.7232564540        0.3807002765        2.5182021798
 H         -6.0040498424       -0.1979592899        1.7923033784
 H         -5.2350057582       -0.1667845176        3.1455712863
 O         -5.0976967445       -3.3835715407        2.7304919973
 H         -4.2169622887       -3.6447338672        3.0252649969
 H         -5.6256466014       -3.2318035304        3.5139546574
 O          4.4891232837       -3.8559701985        0.9333390079
 H          4.5547542216       -3.0702470270        1.4993321659
 H          3.5565925062       -4.0689238227        0.8320104984
 O          6.1995920929        2.3844930061       -2.4534844786
 H          6.1298633431        2.2863347713       -1.4851359506
 H          7.1070258715        2.0859668148       -2.6355993487
 O          3.5304794400        3.1458980465       -2.8698147441
 H          4.4869026533        3.2698414055       -2.9311787584
 H          3.1249329721        3.9689400385       -2.5585705007
 O          1.8838157717        4.7885569677       -1.3348209166
 H          2.1284495391        4.5701257546       -0.4169055528
 H          1.0719033837        5.3152183745       -1.2427905036
 O          8.4330522697        0.8830569858       -2.0840512513
 H          8.6520821213        0.8831058812       -1.1416850206
 H          8.2362587211       -0.0295037602       -2.3196144274
 O         -7.3471958884        2.5951463404        2.2229613611
 H         -6.7921940428        1.8371585759        2.4682137647
 H         -8.2342438733        2.3932579096        2.5180917187
 O          8.9323045732        0.6844052696        0.7424968608
 H          9.8632278360        0.7835608209        0.9397889450
 H          8.4521354975        1.3006945813        1.3278047270
 O          7.3237954561        2.0709047089        2.4441675048
 H          6.9572176556        1.4273347066        3.0801346318
 H          6.8043384457        2.8740709242        2.5693000845
 O         -0.6398875700        5.6654686551       -0.7411096811
 H         -0.9326528522        5.3022873847        0.1064131599
 H         -1.3739961643        5.5598251469       -1.3476558120
 O          3.0402938095       -2.8104726987        3.9165622098
 H          3.9103539981       -2.4463752441        3.7178457130
 H          2.5963858694       -2.1912155498        4.5213522912
 O          0.6108239448       -4.5039441293        3.0405124618
 H          1.4013176621       -4.2760121812        3.5399764605
 H          0.9090128105       -4.8045990535        2.1778921934
 O          1.2670194308       -1.0638310554        5.1316210966
 H          0.8780959172       -1.0353391479        6.0040803983
 H          0.5440390705       -1.3126085233        4.5022774061
