  191

 H          0.4630927076        1.1941025328        0.8323452958
 C          0.5529035761        0.5095402430       -0.0251092077
 H          0.4633421182        1.0989800596       -0.9466436098
 C         -0.5779259333       -0.5149488604        0.0205351875
 H         -0.4518492549       -1.1270258237        0.9278134321
 H         -0.4840892691       -1.1748678656       -0.8448928486
 N         -1.8603253885        0.1647702475       -0.0623309409
 H         -2.6131021662       -0.5138473280       -0.0751527666
 H         -1.9956541839        0.7570092262        0.7508171932
 O          1.7808081027       -0.1833448059        0.0209869107
 H          2.5006908393        0.4507195084       -0.0567171281
 O         -1.9007308527        0.6847569332       -2.6650761687
 H         -1.7069647101       -0.1630431702       -3.1003357654
 H         -1.8498127414        0.5162202538       -1.6848377483
 O         -0.3841038232        2.8855859431       -2.8538294337
 H         -0.9185842797        2.0651845963       -2.8618074003
 H         -1.0662216458        3.5904944854       -2.8746989694
 O          3.2752063066        1.7261944774       -1.0824971670
 H          4.2115879446        1.6166484218       -1.3500913372
 H          2.7703071735        1.5762972486       -1.9100907336
 O          1.7034029528       -2.4456752899       -1.4904076239
 H          1.8054015537       -3.4041772268       -1.2743989606
 H          1.5895468216       -1.9499510876       -0.6707478835
 O          1.0194505499       -1.0141246514       -3.6172360406
 H          0.1096595854       -1.2732467170       -3.8254969610
 H          1.2440441602       -1.5282559665       -2.8139142710
 O         -2.0762678204       -3.0154356183       -1.3039201558
 H         -1.5154155860       -3.8229565057       -1.1755741930
 H         -3.0033299221       -3.3087729856       -1.4157408185
 O         -2.4639846598       -2.5803518281        1.3348513019
 H         -3.4140299476       -2.7675765461        1.4173710681
 H         -2.2660418623       -2.6680755066        0.3773472176
 O         -0.1850756686       -4.0040229576        1.8581127264
 H          0.5601808449       -3.3898008868        1.7152024691
 H         -1.0055435575       -3.4844040947        1.7986411368
 O          1.9383864468       -2.2780726137        1.7421105057
 H          2.1508095175       -2.1994868943        2.6960727865
 H          1.9402583862       -1.3775154642        1.3742530779
 O         -0.2675471964       -1.1341533319        4.8572904738
 H         -0.1333764338       -2.1070234214        4.7999525874
 H         -1.1802632590       -0.9892648203        4.5640926140
 O          0.8234526468        0.5974402896        3.1987534351
 H          1.7152740004        0.3413750908        2.8904091050
 H          0.5123136924       -0.0686649577        3.8557125766
 O         -2.6380183117       -0.7963880720        3.4477860270
 H         -2.4902180715       -1.4178854110        2.7157836457
 H         -3.5884968349       -0.8284007335        3.6456370683
 O          3.3440918120        0.2847975343        2.3183012211
 H          3.8935293123       -0.2134352288        2.9737103501
 H          3.5108842506        1.2327744391        2.5286095789
 O          3.7059269360        2.8422317159        3.0136085000
 H          3.9478399716        3.3340732804        2.2064849490
 H          2.8469223595        3.1817851481        3.3022280125
 O         -4.5467449412        0.5207269504       -2.5054557153
 H         -4.8565948709        1.4399365265       -2.6226165392
 H         -3.5853715275        0.5725209673       -2.6909282226
 O          1.0124515131        3.2368306450        3.5886371904
 H          0.9391601109        2.2585646410        3.5345848461
 H          0.2717219416        3.5270833576        4.1340220382
 O          4.9826526282       -0.2013819059        0.2795809389
 H          4.2965201979       -0.1409938339        0.9776136673
 H          4.5837984251       -0.5936250486       -0.5295972529
 O         -4.9134419471        0.0035273809        0.0682837696
 H         -4.6902104187        0.1584868194       -0.8808200102
 H         -4.6444690710        0.8136679851        0.5576263624
 O          1.8931384858        1.5025127840       -3.3895014768
 H          1.5198154081        0.5967566690       -3.4878934163
 H          1.1234416838        2.0983856298       -3.3821650349
 O         -1.6170476764        1.4577764338        2.4581069669
 H         -2.1595345559        0.7944041101        2.9305002907
 H         -0.7028715606        1.1737969295        2.6346256229
 O         -4.4399715497        2.2730793059        1.3258892210
 H         -4.2445218537        2.2172926276        2.2871303022
 H         -3.6418101095        2.6717246471        0.9121754014
 O         -2.2827276376        3.2171821624        0.0677858904
 H         -1.8953069957        2.4533493352       -0.3704931937
 H         -1.5603072276        3.6152445192        0.6083080024
 O         -0.1914638217        4.2261896737        1.3213575405
 H          0.3228669688        3.8922456173        2.0790080260
 H          0.4127356151        4.2300450480        0.5586029688
 O         -5.1090936749        3.1563585213       -2.6904621175
 H         -5.7056417844        3.5009577612       -3.3539224458
 H         -5.5492792961        3.3185683265       -1.8117791536
 O         -7.4052388937        0.8094318609       -0.6052747906
 H         -6.5422363526        0.4611027028       -0.2902700802
 H         -8.0530017221        0.5377747422        0.0609234411
 O          4.9617081927       -0.9180721392        4.0038797117
 H          5.5451610227       -0.1314948942        4.0407474316
 H          5.4539880504       -1.6281621861        3.5333315121
 O          4.1033458177       -1.3241225780       -1.9480052925
 H          3.2518142538       -1.7979643697       -1.8657680495
 H          4.0566198839       -0.8105815691       -2.7720687273
 O          6.1032364612        1.4919669479        3.6711508837
 H          6.3297118330        1.6444061476        2.7348553044
 H          5.3459751600        2.0704465486        3.8267121171
 O          6.3946068454        1.9683801748        0.9875195919
 H          5.8632665787        1.2324799459        0.6219819890
 H          5.8713022790        2.7734636388        0.8127325554
 O         -5.1762487583       -2.3225765892        1.3403117087
 H         -5.0511382878       -1.4771204632        0.8508698234
 H         -5.2998760875       -2.0448846130        2.2658295669
 O          4.2185596771        0.1949954484       -4.2524678486
 H          4.9820312351        0.7753218143       -4.1939552742
 H          3.4308934121        0.7554150963       -4.2243605205
 O          4.0332044949       -3.7502280705        0.8574765144
 H          3.2929264880       -3.1730931195        1.1320133764
 H          4.4584310397       -3.3640649779        0.0761233470
 O          1.3082149359        3.8073235998       -0.9158930033
 H          1.9600480119        3.0953304867       -0.8695160411
 H          0.6798419153        3.5648673323       -1.6215431331
 O          2.5268568557       -2.0435847414        4.3609043193
 H          3.4384333396       -1.7181358248        4.4441230251
 H          1.9682550724       -1.4980386066        4.9220397697
 O          6.0669545141       -2.8253021113        2.5014739569
 H          6.6502039338       -2.4479918741        1.8272674663
 H          5.3508255554       -3.2873438163        2.0268994739
 O          4.3851877390        3.6952385006        0.5364117291
 H          4.2588785700        4.4619522602       -0.0700938979
 H          3.9111369478        2.9765222591        0.0914582486
 O         -5.3457810204       -1.0597441400        3.7294423167
 H         -5.6576039543       -1.2646636112        4.6098371867
 H         -5.8142569396       -0.2311436219        3.4478048579
 O          7.3018147473       -1.4388081590        0.3757411041
 H          7.9808877308       -0.7668847660        0.5556928795
 H          6.4398054506       -0.9581666812        0.4320357607
 O         -6.7324329361        0.9957277825        2.8461400750
 H         -7.4568131565        0.5559669726        2.3670381851
 H         -6.2279510842        1.5047931749        2.2034638763
 O         -8.6464865720       -0.4229252478        1.4659081185
 H         -8.3228548369       -1.2724743248        1.0602184650
 H         -9.5346956151       -0.5898354291        1.7770066755
 O         -7.6559099972       -2.5413672464        0.2710199419
 H         -7.4548283874       -2.3524016613       -0.6548900372
 H         -6.7908226709       -2.6281261625        0.7174265007
 O          5.7297768019        1.6040428557       -2.1546621150
 H          6.5723805519        2.0570555413       -1.9776618070
 H          6.0099618737        0.6655053220       -2.2465701720
 O         -6.5518826870       -1.3574657627       -2.1742137640
 H         -5.8017790878       -0.8585783859       -2.5343844660
 H         -7.1406485887       -0.6570477663       -1.8519740575
 O          6.8415043644       -0.8341553285       -2.3447718454
 H          7.2247881167       -1.0313598264       -1.4760134986
 H          6.0915557470       -1.4374768903       -2.4258179903
 O         -1.8160144595        3.7399779711        3.7902479346
 H         -1.7470251755        4.4686802177        3.1687515858
 H         -1.6843283781        2.9270610794        3.2437107358
 O          8.7668125788        0.8563939325        0.6564974602
 H          9.3818677817        1.1144259528        1.3425365404
 H          7.9437447186        1.3750262437        0.8107972749
 O         -4.7405940733       -3.3905598569       -1.3068441198
 H         -4.9573935886       -3.3761648760       -0.3685424773
 H         -5.3637418767       -2.7844766688       -1.7334207707
 O         -2.5715524285        4.3689297241       -2.4319804121
 H         -2.5214542765        4.2270466371       -1.4724207878
 H         -3.4138324151        3.9669552676       -2.6916473145
 O         -0.5077478394       -5.0290730713       -0.6606774242
 H          0.3947324507       -5.1695162016       -0.9773194965
 H         -0.4099356049       -4.8659313379        0.2967541955
 O          2.2933753087       -4.9505751497       -0.9815031303
 H          2.8650319254       -4.8568257976       -0.2015949672
 H          2.8976109002       -4.9206884448       -1.7585567678
 O          0.2736218210       -3.7426165010        4.5279073750
 H          1.2322961741       -3.6503620726        4.5436056321
 H          0.0487677048       -4.0258716722        3.6214367975
 O         -1.5797066099       -1.8417311853       -3.6129582346
 H         -1.7244451526       -2.3088550777       -2.7493332042
 H         -2.1336695021       -2.2787441542       -4.2590147890
 O          3.9985741251       -4.3002283244       -2.9118130722
 H          4.6743776999       -3.7983472782       -2.4411355244
 H          3.6655198900       -3.7122155326       -3.6154261666
 O         -6.3545510201        3.3130023443       -0.3882357273
 H         -5.6874125589        3.1032287691        0.2853293509
 H         -6.8905021288        2.5035068999       -0.4993016628
 O          6.0105184566       -3.4143591474       -1.0602022982
 H          6.3299870367       -4.3110140699       -0.9548792925
 H          6.6036272875       -2.8413916826       -0.5497030152
 O          3.1633697272       -2.4061271945       -4.7259391032
 H          2.3197158694       -1.9909574575       -4.4853313855
 H          3.7786568935       -1.6747813379       -4.8438311356
 O         -4.0896154860        2.2099566792        3.9745912547
 H         -3.3567369564        2.8341263184        4.1322276194
 H         -4.8625161731        2.5351449972        4.4350500247
 O          8.4162610957        1.7536717439       -1.9714470880
 H          8.4276352760        0.9613496503       -2.5151597100
 H          8.7130956202        1.4775442577       -1.0913224200
 O          3.6373467146        5.2833165961       -1.4332797537
 H          3.8838891861        4.8002381419       -2.2430313707
 H          2.6912449202        5.1176857403       -1.3111347775
 O          4.0979308483        3.4673769562       -3.4765562108
 H          4.7472974973        2.8761395450       -3.0650184197
 H          3.2869320376        2.9615143486       -3.5941895602
