  537

 H         -0.5425046743       -1.1597985894        0.9180892389
 C         -0.6112519132       -0.5412947937        0.0100733782
 H         -0.5391305615       -1.1969133895       -0.8712431672
 C          0.5103661484        0.5037879268       -0.0094858957
 H          0.3911107837        1.1518928899        0.8600953411
 H          0.3944402462        1.1152677496       -0.9056423632
 O         -1.7891824887        0.2100247074       -0.0077307946
 H         -2.5646576742       -0.3620736716        0.0026730553
 N          1.8637428522       -0.1172780563        0.0059484573
 H          1.9871280529       -0.7237022136       -0.8163100257
 H          1.9839792348       -0.6890765251        0.8531045742
 H          2.5930835058        0.6072404374       -0.0077060345
 O          3.7016219860        1.8645047845        0.1024680356
 H          3.7655657020        1.9086967821       -0.8658612606
 H          3.4521923294        2.7499158506        0.4262360015
 O          2.1137430012       -1.3550779146        2.3347946987
 H          1.6874550097       -1.4019953216        3.2124970605
 H          2.8655692844       -1.9801176528        2.3685711733
 O         -0.5630968860       -1.2519435726        3.2665705412
 H         -1.5431224506       -1.2518319325        3.2159076229
 H         -0.3233817924       -0.3158770215        3.1598627609
 O         -3.1423324176       -0.9873076965        3.0414261435
 H         -3.2790440457       -0.2091623078        2.4549157761
 H         -3.5890681078       -0.7622125237        3.8730452856
 O          1.5333565886       -2.8535092650       -0.1107755481
 H          0.9795753980       -3.0161832632       -0.8982811933
 H          1.0030269454       -3.1533477080        0.6476777993
 O          1.4786335695       -1.0094276684       -2.5120014238
 H          1.9173288727       -0.4002731779       -3.1295195136
 H          1.8245846792       -1.9035140381       -2.7052212013
 O         -0.1996341682       -3.4001328051        1.8767474113
 H         -0.1574793372       -2.5472752622        2.3635348087
 H         -1.1540867010       -3.5288179275        1.7047741563
 O         -2.8900978450       -3.4941953966        2.0008624098
 H         -3.1080550969       -2.6351469102        2.3975125138
 H         -2.8319318431       -4.1452714031        2.7238101176
 O         -3.5814396129        1.2874590496        1.7577965866
 H         -3.9633513149        1.7666524020        2.5208947151
 H         -2.7914396298        1.7968594873        1.5132853611
 O         -3.6872103819       -1.6164599346       -0.1987672467
 H         -4.1408474371       -1.6908969651       -1.0405103948
 H         -4.3814803677       -1.6154054491        0.5043663869
 O          3.8714978262       -3.8783315004       -0.3775614816
 H          3.9756217629       -3.8417218970       -1.3314201286
 H          2.9829564617       -3.4514746220       -0.1980970266
 O          1.3522324509        2.8838001077       -2.6982707251
 H          1.8328067198        3.3100202050       -3.4440087923
 H          0.5078163776        2.5650072866       -3.0727487292
 O         -0.9804837565        1.8795311959       -3.5001518519
 H         -1.4993551397        2.0991765900       -2.7127787569
 H         -0.9191717835        0.8972097821       -3.5182756441
 O         -0.8817679831       -0.7679565807       -3.5235277325
 H         -0.0180651509       -0.9539650881       -3.0648038056
 H         -0.7084403255       -0.9199576874       -4.4708737178
 O         -0.6412765849        1.3532467684        3.4046449326
 H         -0.0050258858        1.9594994664        3.8138173957
 H         -0.9900512327        1.8350395429        2.6305306813
 O         -4.9131725809        1.0335301349       -0.5940733535
 H         -4.4588960756        1.0763145023        0.2690265253
 H         -4.2868694823        0.6846584109       -1.2518061659
 O         -1.4545403558        2.9558674403        1.4082151694
 H         -1.3479936315        3.6767301505        2.0606312438
 H         -0.8059972660        3.1505247771        0.7143975257
 O         -3.2594573617        0.2037610112       -2.5367624314
 H         -3.3709540948        0.0536795696       -3.4911480631
 H         -2.4414099676       -0.2269823108       -2.2831739133
 O         -2.3194553603        2.5025990594       -1.1997018519
 H         -2.9303315209        2.9738851951       -0.5788169486
 H         -2.0647326296        1.6805031590       -0.7342980015
 O         -2.7657497148       -2.6029571884       -3.0748501177
 H         -2.0239635458       -1.9790082941       -3.1876197095
 H         -2.4819356010       -3.4164627016       -3.5153460904
 O          2.9724033204        0.9872582188        3.2133567301
 H          2.3133512397        1.6102392670        2.8366173037
 H          2.7818226330        0.1069897817        2.8233482494
 O         -5.2092760002       -1.8414278097       -3.4402746119
 H         -5.3418046956       -0.8745098863       -3.5458377395
 H         -4.2489341712       -2.0241132196       -3.2882140822
 O         -2.3338723089       -3.9038708059       -0.6657524447
 H         -2.6914319528       -3.0800239187       -0.2834553250
 H         -3.0840294357       -4.2718251026       -1.1758913537
 O          4.0890181843       -1.1530826705       -1.2149511550
 H          3.8856136048       -0.3794591286       -1.7634585918
 H          4.6073846745       -1.7646042983       -1.7569919814
 O         -5.7985346211        0.7456237235       -3.6692795441
 H         -6.6485943442        0.8803595686       -3.2001460976
 H         -5.1847132334        1.4233288262       -3.3250922747
 O          0.6760572429        3.6616084604       -0.2371984130
 H          0.9951059837        3.4310317319       -1.1327972128
 H          0.7673026246        4.6153139271       -0.1571092044
 O          4.1934209374       -2.8687552017        2.7980343374
 H          4.4651531831       -2.4757332086        3.6518525701
 H          4.7947795543       -2.5161277796        2.1270648016
 O          4.6084248101       -0.4071771991        1.2578273688
 H          4.4469383051        0.5304687982        1.0870751691
 H          4.4510296880       -0.8399421785        0.3966457677
 O         -5.5175307617       -1.6019785193        1.6595346445
 H         -5.7829559243       -0.7749823132        2.1153915895
 H         -5.1793044452       -2.1833336339        2.3646511705
 O         -6.3879959507       -2.7317605257       -1.3327338761
 H         -7.2018875175       -3.1467249446       -1.6654018461
 H         -5.9903790368       -2.3270907744       -2.1418650448
 O          5.7688524678        2.4738033368       -2.0913878324
 H          5.5914911248        1.6280955758       -2.5424979398
 H          5.8531914418        2.3003439704       -1.1296070375
 O          1.5846694858        0.6143862828       -4.7325419560
 H          1.0315242591        1.4087947466       -4.8596710098
 H          2.3094089268        0.7493991807       -5.3669200395
 O          3.3578669933        1.1797973466       -2.4793424857
 H          3.7924240446        1.2535715801       -3.3423614959
 H          2.5410246742        1.7156718362       -2.5527124357
 O          6.0572689529       -0.0720212418       -3.0888225062
 H          6.6658111623       -0.0963755516       -3.8494022649
 H          5.2173120054       -0.4188288498       -3.4595137907
 O         -4.0572946347        3.7551110051        0.2708781814
 H         -4.5987938560        4.4750484888       -0.1080638174
 H         -4.7195281568        3.1347501392        0.6490172489
 O          5.3106928284        2.0693242812        2.7211477187
 H          5.8347919888        1.8247655767        3.5090136306
 H          4.4164969164        1.6830192543        2.8637534590
 O         -4.6731321062       -4.8249287422       -1.6171670340
 H         -4.7830314357       -5.2866262562       -0.7681921401
 H         -5.2791697908       -4.0604952447       -1.5289771799
 O         -7.1556551970       -0.3665906432       -0.2902508662
 H         -6.9231411980       -1.2806749164       -0.5454757405
 H         -6.3176201994        0.1425170015       -0.2869988286
 O         -0.1885296345       -3.3298138345       -2.1254088952
 H         -0.0757440319       -4.1030643847       -2.6824138579
 H         -0.9942516208       -3.5042048443       -1.5930459225
 O         -4.9230439311       -5.1331296235        1.0038433209
 H         -5.0143547056       -5.6545732971        1.8309705711
 H         -4.2394277360       -4.4718705248        1.2167326002
 O          3.8616010090       -1.0845804838       -4.1661690282
 H          3.7934150153       -1.3128931069       -5.1061276236
 H          3.6024489819       -1.8904019286       -3.6984499247
 O          1.4289727552        2.8185419914        2.2091469939
 H          1.9978437183        3.4810385745        2.6296248778
 H          1.3017642074        3.1062939146        1.2891243561
 O          3.7875878247        4.3960143750       -1.7676218638
 H          4.3148547433        3.7312434792       -2.2345868918
 H          3.2065277932        4.8364103156       -2.4266528479
 O          1.5449072726       -1.4277811044        4.8873023224
 H          0.6221805543       -1.7221511874        4.8826314220
 H          2.0857222443       -2.2021846753        5.1302405770
 O         -4.1292351749        2.8042782133       -3.1568580212
 H         -3.5039094196        2.5775873613       -2.4409570244
 H         -3.6536986135        2.6670432944       -4.0011726484
 O         -3.5886242038        4.9402278640        2.6143411260
 H         -3.6705553961        4.1601463181        3.2021620238
 H         -3.5735220278        4.5466329528        1.7167628014
 O          0.6567188814        6.5313909155       -1.1134056246
 H          0.2357041314        7.3571956094       -1.3837159188
 H         -0.0349132194        5.8716831180       -1.3381187900
 O         -2.7920818082        2.2768030987       -5.4334835881
 H         -1.9514326486        2.2623682179       -4.9284866535
 H         -3.0638829179        1.3360317361       -5.4722860979
 O          3.9443600199        0.6991010208        5.6347767704
 H          3.6067785694        1.3765063113        6.2333558669
 H          3.4888889638        0.8300802149        4.7713512246
 O          0.2500975067       -4.6341961806        4.1602957652
 H          1.1577182714       -4.9486603984        4.2032457104
 H          0.1560499233       -4.2365424608        3.2585681043
 O          5.0378586927       -1.6689587976        5.0560638888
 H          4.5761280595       -0.8762364427        5.3720377695
 H          5.7585229344       -1.3364155939        4.4851607593
 O         -3.5718156147       -0.2454327728       -5.2323594555
 H         -3.1295249144       -1.0595138348       -5.5393485553
 H         -4.5135596717       -0.3354683648       -5.4643605531
 O         -4.2549570073        2.7289868037        3.9209130483
 H         -3.8225916199        2.5202959378        4.7765274413
 H         -5.2052222320        2.8721392063        4.1155764425
 O         -6.0860239332        0.5403317171        3.1496696715
 H         -6.8968032695        0.5500249097        3.7078496193
 H         -6.1371352393        1.3079675756        2.5449144863
 O         -1.3863922320        0.0770936493        5.7027635996
 H         -1.2433409805        0.4725080774        4.8200713899
 H         -1.3123918322       -0.8829783315        5.6007826447
 O          6.5647923654        2.0346417279        0.3768464723
 H          6.0699039726        1.9916549827        1.2166172037
 H          6.7878478381        1.1074746947        0.1294438453
 O          3.2378871757        4.4002445439        0.8557201554
 H          3.9987323777        4.6804603180        1.3928701561
 H          3.4250239527        4.6281757605       -0.0733324582
 O          8.3770122249        1.5031818143       -2.2197169913
 H          7.4281100232        1.6888487032       -2.2397391926
 H          8.5195071616        0.5433618520       -2.1759788834
 O          6.9255021878       -0.3794693999       -0.5486600067
 H          6.4687770963       -1.0533579605       -0.0302721742
 H          6.5438549662       -0.3924913714       -1.4441147893
 O         -8.0080131627        1.1205256601       -2.2660046905
 H         -7.6560167862        1.9645896540       -1.8976118947
 H         -7.9147459667        0.4793093866       -1.5185823405
 O         -8.2459112359       -1.2349105542       -4.1013055526
 H         -8.3173736061       -0.5862945972       -3.3911609227
 H         -7.4631021537       -1.0000978489       -4.6216677250
 O          0.0012457871       -0.9779501037       -6.0514371887
 H         -0.3691481112       -0.3045527128       -6.6642401821
 H          0.7179985032       -0.4663632508       -5.5855209156
 O          5.9760083079       -2.7460001732        0.6043375328
 H          6.2726654474       -3.4402046588        1.2217722298
 H          5.1589610607       -3.0947218488        0.1738860400
 O          6.5356779689       -0.7764700911        3.0156593169
 H          7.1187499633        0.0039188767        2.9917958300
 H          5.8370294601       -0.6237774909        2.3409269583
 O         -1.6490481337        6.1104058028        0.8502631360
 H         -2.0513432263        5.9005796698        1.7007529848
 H         -0.7046996299        6.2423235578        0.9915498475
 O         -1.5052523449       -5.9162784759        0.8530170454
 H         -0.5543444458       -5.7008386200        0.9639706055
 H         -1.8953835486       -5.1303590316        0.4095976624
 O          1.0232060198       -3.4357509273       -5.5036259830
 H          0.6448832063       -2.5693156799       -5.7339610479
 H          0.2831057290       -4.0389024751       -5.3986333431
 O         -2.2181773543       -5.6589833291        3.4758290646
 H         -1.3655226076       -5.5024577846        3.9069223406
 H         -2.0086312797       -5.9716707355        2.5745937688
 O         -7.2044050447       -3.6757851359        1.2939013522
 H         -6.7229273432       -2.8263595528        1.2750193599
 H         -6.5082346973       -4.3409023325        1.1368263472
 O         -7.6309424377       -2.3328225940        3.7211236406
 H         -7.9010975789       -3.0370191907        3.1192728670
 H         -7.8620006250       -1.5024605698        3.2567983641
 O         -6.4240347702        3.1300407478       -1.5020289482
 H         -5.7356885949        2.4851100595       -1.2604212243
 H         -6.3136056846        3.4011386813       -2.4309445746
 O         -6.1789145192        2.5961954942        1.3970897696
 H         -6.3020519399        3.4550385982        1.8527812373
 H         -6.9273238961        2.5266550157        0.7802541885
 O         -8.4356299447       -0.2762527529        2.0595814412
 H         -7.9672649963       -0.2953472744        1.2020498625
 H         -9.2484466224       -0.8076396423        1.9392721776
 O          2.5888635369       -3.3132371124       -3.2630609458
 H          2.3298511628       -4.0331854390       -2.6573683758
 H          2.0972998069       -3.4644195765       -4.0900112478
 O          4.8275438804        1.7567992121       -4.7700890350
 H          5.6095813578        2.3354356617       -4.8730623674
 H          4.9015338358        1.0860840002       -5.4649156859
 O          8.4392210970       -2.4712344452        2.3699621514
 H          7.6684912276       -1.9640897718        2.7192142178
 H          8.6734232296       -1.9870471237        1.5431987665
 O          2.8077924072       -5.2128566280        2.9586989907
 H          3.4314520663       -5.7244658880        2.4110736020
 H          3.1847309399       -4.3159267228        2.9654952577
 O          2.1291689248        5.8335410423       -3.2623684231
 H          1.6368095674        6.1981708474       -2.5038210934
 H          1.4505732972        5.5671081764       -3.8964936973
 O         -8.7489179889        2.3318081066        2.7804620124
 H         -8.6318964178        1.3677797872        2.6347637022
 H         -8.6981044623        2.7262253760        1.8929480290
 O         -1.3013117432        4.8373119133       -1.9163407169
 H         -1.4736292272        3.9600315291       -1.5322651881
 H         -2.0709781041        5.3820430278       -1.7003791539
 O         -0.5946904686        4.6715946376        3.2515745657
 H          0.0912271960        5.1377154216        2.7302139164
 H         -0.1231746345        4.0943172708        3.8664713508
 O          0.8250969069        3.0406622169        5.0112505165
 H          1.6605354124        3.4433441882        4.7069931302
 H          1.0392286033        2.2253573348        5.5140631654
 O          7.4453597107        4.5031695042       -2.7132177013
 H          6.9970729741        5.3178995241       -2.4278753254
 H          6.8438226482        3.7855724793       -2.4328532095
 O          1.9268339194       -5.3104325171       -1.6136716781
 H          2.7253248419       -5.8789169394       -1.5712869217
 H          1.5956176378       -5.2295981459       -0.6928468949
 O          5.6823073961        6.2576132601       -1.5114714020
 H          6.1841976119        5.9413052786       -0.7473458689
 H          4.9805313008        5.5812795361       -1.6543189512
 O         -5.0750735941       -3.2143117554        3.8044357319
 H         -4.5781035800       -3.0154350297        4.6148146675
 H         -6.0051369059       -2.9528422504        3.9477153313
 O          8.3414922656        1.2113277543        2.7021008559
 H          8.0998331878        2.0626723518        3.1037886988
 H          8.5594358462        1.3803756087        1.7676829046
 O          6.4449770209        1.4372934093        5.0626370478
 H          7.1337160281        0.7730122507        5.2793186508
 H          5.6052559715        1.0475344597        5.3818110468
 O          5.5398281166       -2.9776279863       -2.6432845967
 H          6.3253821168       -2.5485026139       -3.0159696125
 H          5.8513812284       -3.8157723214       -2.2453609197
 O          0.4554955916        2.8333720521       -5.7584474983
 H          0.1098078212        3.6119863294       -5.2680406564
 H          1.3803577010        3.0614767480       -5.9325217218
 O          2.8335494429        3.5461406677       -4.8124929208
 H          3.3426376312        4.3587518770       -4.6873763479
 H          3.5076855123        2.8455347114       -4.9128950623
 O          8.1800375264       -2.4651483871       -3.4966522976
 H          8.1753848861       -2.8446862871       -2.5904002398
 H          8.8678688176       -1.7819157573       -3.3986153846
 O         -4.9703342317       -5.9461693573        3.5184630407
 H         -4.0334325555       -6.0984763491        3.6978356771
 H         -5.1206471500       -5.0066876212        3.7290086901
 O          8.1141661156       -3.0777458204       -0.9310960175
 H          8.7307119902       -2.3805627468       -0.6322976114
 H          7.2683214980       -2.8734904236       -0.4749779446
 O          7.7965736265        3.7406277919        3.6351860565
 H          7.7950395750        3.7576044435        4.5927752158
 H          6.9808002443        4.2029092791        3.3507273867
 O         -7.9676473560        0.5267274264        5.0370297015
 H         -7.7324424903       -0.1061146349        5.7265181320
 H         -8.8693097915        0.2688723538        4.7486250061
 O         -6.2669161088        5.0678714482        2.4490417961
 H         -5.3004647580        5.1932231105        2.5838277613
 H         -6.6446566365        4.8884110762        3.3153963318
 O         -8.6006937186        2.7866794880        0.1458751324
 H         -9.3012695590        2.1306661547       -0.0177927626
 H         -8.6848261337        3.4528645957       -0.5635796023
 O          1.0945358825        0.7549096091        6.4223827117
 H          0.1320174293        0.5817464768        6.3961567724
 H          1.4790614535        0.0484115886        5.8662070574
 O          7.1246340864        4.6559671761        0.2391475674
 H          8.0459456003        4.7356750518        0.5416045522
 H          6.9873592854        3.6971338237        0.1112056045
 O         -0.3036521679        4.9935577400       -4.4073838457
 H         -1.1076740258        5.1823387101       -4.9369315634
 H         -0.6216179378        4.8560104009       -3.4946062266
 O          5.5549299500        4.6776161549        2.3673387987
 H          6.1183336125        4.7447413069        1.5651247532
 H          5.3610159326        3.7212611956        2.5034082661
 O         -6.8623804485        3.1361510125        4.4740477655
 H         -7.5693809064        2.8736442114        3.8366099715
 H         -7.0833287903        2.6328137510        5.2614726578
 O         -1.7156879894       -4.6339505511       -4.6247902198
 H         -2.5856906697       -5.1000915811       -4.5747547457
 H         -1.0742999663       -5.2404266200       -4.2093637118
 O          2.9460700774        4.3212937590        3.9215125426
 H          3.7766337032        4.1163293026        4.3942804183
 H          3.0569147890        5.2302885103        3.5963863396
 O          9.3719957284        1.6379973601        0.2460209895
 H          9.0407302878        1.8342020562       -0.6568097271
 H         10.3432556505        1.5012921791        0.1491453485
 O          1.1401325240        5.9313388013        1.6875229331
 H          1.9076515134        5.4030651510        1.3766324422
 H          1.5188410163        6.7192797314        2.0806475908
 O          9.3884626580       -1.1069407979        0.3417025592
 H          9.1448159914       -0.1767467278        0.2027150243
 H         10.3368245362       -1.1335130701        0.5660740107
 O          0.0855924707       -6.1032885685       -3.2827670563
 H          0.7981420479       -5.8182519223       -2.6633184447
 H         -0.4979648678       -6.6402965053       -2.7173366256
 O         -5.1758021622       -3.2901300012       -5.6732743675
 H         -4.2900425636       -3.1159858508       -6.0137930935
 H         -5.2320902823       -2.8250025067       -4.8069969474
 O          9.2391557264        1.5966916628       -4.7244784051
 H         10.1969261906        1.5778847092       -4.6976198872
 H          8.9716783650        1.6733770870       -3.7776511483
 O          4.5495989720       -6.0390205786        1.0610334970
 H          4.2822753854       -5.2552306203        0.5309270345
 H          5.4366604580       -5.8519278388        1.3781305166
 O        -10.6492143605        1.0301062190       -0.3683456006
 H        -10.1855960333        0.2194810982       -0.6911664647
 H        -10.9137009978        1.4967023046       -1.1751434691
 O         -0.8936611952       -2.7224313240        5.7046963097
 H         -0.5542838622       -3.4755818513        5.1782311071
 H         -1.8297262440       -2.8971405567        5.8771525849
 O         -5.9312708755        5.5511427291       -0.3317610535
 H         -6.4172851889        4.8426418642       -0.7926526028
 H         -6.3222810905        5.6233020255        0.5478681877
 O          4.8140448563       -4.2161972491       -4.9684133749
 H          4.8623572593       -3.7117655581       -4.1316377436
 H          4.1574054689       -4.9153234973       -4.8129637316
 O         -4.1699627977       -5.4913815942       -4.2427397155
 H         -4.3953206673       -5.3153783243       -3.3124262309
 H         -4.7084375454       -4.8898604401       -4.7811570988
 O         -9.6205192962       -1.1150481427       -1.5152035671
 H        -10.2286883328       -1.3995697571       -2.1973444993
 H         -9.4513391942       -1.9109181229       -0.9601839947
 O         -9.3037751599       -3.4146427853       -0.2385509199
 H         -9.2135088810       -3.9681690712       -1.0189092339
 H         -8.4956840516       -3.5616709097        0.3171942741
 O         -4.5727484034       -0.0849161121        5.1720049721
 H         -4.2953722411        0.6830114671        5.6884516915
 H         -5.1272130441        0.2584426674        4.4240918895
 O        -10.4872621897       -1.9736183189        1.8508646822
 H        -10.2286134254       -2.6530953447        1.2169075376
 H        -11.3118516831       -1.5761028237        1.5012218847
 O         -8.3592010961       -3.6588249458       -2.9294251558
 H         -8.3815673999       -2.7869653323       -3.3862051676
 H         -8.1163247533       -4.3022461471       -3.5945557282
 O         -3.4288257258        6.4965065169       -1.1149951355
 H         -2.8461681170        6.4901794280       -0.3288759899
 H         -4.3353827339        6.4470755922       -0.7787759878
 O          1.1392289803       -5.6147030871        0.9031737909
 H          1.6553262558       -5.4115387033        1.7082722940
 H          1.2766111202       -6.5595966364        0.6963021940
 O         -2.4065945864       -2.5007664607       -6.1507690385
 H         -1.5982550563       -2.1100760985       -6.4984894854
 H         -2.1281935099       -3.2810126854       -5.6375649132
 O         -3.1794734717        2.0221042880        6.2518064126
 H         -2.6385728769        2.8078826498        6.4965046175
 H         -2.5276775006        1.3022562854        6.2157821069
 O         -2.2470422046        5.9596929070        4.9333541338
 H         -1.6402483844        5.6084864922        4.2547492085
 H         -3.1098881567        5.9633661923        4.5149814637
 O        -10.3847761757       -0.3530941360        4.2214404570
 H        -10.8463013204        0.3049436563        3.6751289677
 H        -10.4003786099       -1.1710640320        3.7126195584
 O        -11.3274999213        1.5607946239        2.4212217791
 H        -10.6061511599        2.0998988638        2.7840748948
 H        -11.0970425904        1.4387845975        1.4913938457
 O          4.0504080608       -6.9003844955       -1.5393025510
 H          4.1317855959       -7.0559286009       -0.5870770430
 H          4.8730892448       -6.4117491631       -1.7628122506
 O         -1.2685887804       -7.3670642393       -1.3140202122
 H         -1.3993496779       -6.8425411114       -0.4761449388
 H         -2.1030998910       -7.8016557884       -1.4824587567
 O        -10.4377256261        1.9766203279       -2.9312764863
 H         -9.5423822647        1.5963087049       -2.7716644181
 H        -10.6895875698        1.7344555263       -3.8209469745
 O         -8.9823107999        4.2533542545       -2.1013169335
 H         -9.6810171257        3.6996463077       -2.4743554804
 H         -8.2971429377        4.3183630828       -2.7805695021
 O         -6.8066014166        4.0960061603       -3.9865251840
 H         -6.1906094175        4.8395673425       -4.0269993882
 H         -6.5979502392        3.5242993346       -4.7511401177
 O          6.7664816367       -4.6243551364        2.3686130623
 H          7.4551088101       -3.9862854327        2.6381209086
 H          6.1723731282       -4.6983824122        3.1389060700
 O          5.1795512423       -4.9806019692        4.6054260712
 H          4.8890310237       -5.8854296806        4.4852316374
 H          4.3875203990       -4.4991788918        4.9058083484
 O         -4.4049147488        5.4306305652       -3.5336994096
 H         -4.1537719842        5.9616677800       -2.7706308885
 H         -4.3194425417        4.4917791319       -3.2603919643
 O        -12.5544889391       -0.5881926602        0.8402032622
 H        -12.0269842127        0.0131120430        0.2882619921
 H        -12.8322490025       -0.0628288770        1.5953439451
 O          8.1258415262       -0.5692482879        5.5944481630
 H          8.9756071954       -0.5445725852        5.1329960751
 H          7.7505873647       -1.4435387166        5.4038291910
 O         10.0749494063       -0.6794979338        3.5699870972
 H          9.5512700013       -1.4602576125        3.2953984794
 H          9.5476141296        0.0819549420        3.2584536921
 O          7.5422335161       -0.3902118506       -5.3225433756
 H          8.2515033554        0.2806921205       -5.2416099294
 H          7.9121593519       -1.2437024064       -5.0756222429
 O          6.2850841707       -5.4458847593       -1.8527394081
 H          6.9648656663       -5.6649788633       -1.1912926788
 H          6.7376518570       -5.4823060809       -2.7307140331
 O          3.3599053046        7.0594875203        0.0072202703
 H          2.5130179324        6.9868473267       -0.4479833574
 H          4.0589177609        7.0931270409       -0.6584576245
 O          8.2310543888       -5.4917436007        0.1220415279
 H          8.2942363943       -4.6009436999       -0.2954030128
 H          7.7482399620       -5.3689079573        0.9490970241
 O         11.7823847716       -1.2064697116        1.5574349264
 H         12.0127476989       -2.1365433178        1.5886925818
 H         11.3369382161       -0.9852583578        2.4050762358
 O          7.0479557189        3.2899720517       -5.1024234436
 H          7.7943923588        2.7129795715       -5.3079805366
 H          7.3229489312        3.7741148797       -4.3011899506
 O          1.2961542692       -7.9467411000       -0.3464551571
 H          0.4140855472       -7.9042688748       -0.7498997252
 H          1.9407723670       -7.9170421514       -1.0562696610
 O          5.2250368730       -0.1397699625       -6.7803470526
 H          4.8123133943       -1.0105140212       -6.8610866162
 H          6.1174744604       -0.2792387991       -6.4245907368
 O         -2.6664372222        5.1250270896       -5.5751579640
 H         -3.3501757120        5.3605096784       -4.9182366438
 H         -2.7988350494        4.1941785103       -5.7852404395
 O          9.7999572338        3.7538638777       -1.5616611387
 H         10.1826200898        4.5065893217       -1.1127200848
 H          8.9907112074        4.0589810441       -2.0141815602
 O          4.9489614054        5.1122582123       -4.2734748507
 H          5.6520033043        4.7546356477       -4.8233586738
 H          5.2168425910        5.9722430849       -3.9493372043
 O         -0.8582374577        1.1505465795       -7.3603619137
 H         -0.3276746682        1.8191556704       -6.8764541820
 H         -1.7639615530        1.4597554825       -7.2902769317
 O          9.9091111329       -0.6796667612       -2.5640922392
 H         10.4927455783        0.1030788452       -2.6440359176
 H         10.3711338186       -1.3073574383       -1.9859995389
 O          3.1378443823       -3.4638493970        5.7371612329
 H          3.8716362108       -2.8387699494        5.8373286324
 H          2.5892199847       -3.3944914894        6.5390960578
 O         11.2966828850        1.6288348744       -2.5390756635
 H         10.7346586745        2.3894121059       -2.3049105091
 H         11.8299607116        1.4719434107       -1.7489084629
 O          3.6153884110       -2.4134699717       -6.5129767263
 H          2.7124848362       -2.7450647066       -6.5316819305
 H          4.1357712509       -3.1306754538       -6.0857982792
 O          9.4774773180        4.0709327920        1.4387777866
 H          9.3927145162        3.2213864711        0.9491436942
 H          8.9732704842        3.9888722903        2.2625525149
 O          3.6785859332        6.7115390709        2.7305392010
 H          3.6186238050        6.9745500028        1.7959186678
 H          4.5689811546        6.3589149663        2.8394295387
 O          2.8612901506        1.2379992516       -6.9763266597
 H          3.7356771353        0.8648246518       -7.1504731411
 H          2.2861921939        0.9942187237       -7.7006015427
 O         11.9826037721        1.1477570195        0.1392096652
 H         12.1362925257        0.2597931037        0.4929712980
 H         12.1396844869        1.7530670774        0.8887225703
 O         -6.1574045196       -0.7801094011       -6.0080264929
 H         -6.5683556518       -0.3669841877       -6.7661729839
 H         -6.0343431818       -1.7314916149       -6.1850121877
 O         -5.8964093330        2.3236236303       -5.8571584386
 H         -4.9697199332        2.5142795915       -6.0183248955
 H         -5.9186172275        1.5973141458       -5.2014872422
 O          7.3231044304       -5.0210192713       -4.2305870015
 H          7.7957528251       -4.1790284772       -4.1617396972
 H          6.5032912962       -4.8288401473       -4.7200285645
 O         11.1113337949       -2.7298693558       -1.1427622528
 H         10.9116177459       -3.2031082957       -0.3118248953
 H         11.4482857749       -3.3812992328       -1.7554469547
 O         11.6501625300        2.6359109601        2.3531438232
 H         11.2368956816        2.1399234547        3.0619894786
 H         11.0243957845        3.3305246030        2.0800117494
 O         -3.6632230346       -2.5179504092        6.0594156590
 H         -3.8186897245       -1.5722616261        5.8948143865
 H         -4.2964382880       -2.7660449465        6.7372192223
 O          7.4041868428       -3.1782919199        4.8462060181
 H          8.0783531127       -3.7704251337        5.1744346373
 H          6.5484147138       -3.5913777272        5.0150789136
 O          2.9882868237       -6.1059026706       -4.2025196483
 H          3.3486929341       -6.6416678353       -3.4897539371
 H          2.0392394424       -6.2577488942       -4.2334221708
 O         10.4527964063       -4.0628650716        1.1618910170
 H          9.9496685455       -4.8172402169        0.8209286750
 H          9.8418755404       -3.5837236341        1.7372966677
 O         -1.4018536061        3.9470442777        6.5423734563
 H         -0.6246705827        3.6754723738        6.0365966182
 H         -1.7470254956        4.7476951385        6.1022972330
 O          1.2437367927       -2.5358204993        7.4507215151
 H          1.3149068829       -1.5896591497        7.5957230651
 H          0.4029160095       -2.6735338212        6.9801364792
 O          5.0800138119        3.7651845030        5.4903385450
 H          5.6812659028        3.0154798469        5.3502357531
 H          4.5675346215        3.5475197886        6.2745788032
 O         -6.5791618232       -1.7009370659        6.2299333695
 H         -7.1043404592       -2.0411759297        5.4928201391
 H         -5.9160509058       -1.1069869889        5.8457576604
 O         -1.3046208399        7.6249322909       -2.6249539126
 H         -2.1634854837        7.4823735445       -2.2103654742
 H         -1.3050307717        7.1446507421       -3.4558988161
 O          2.8284634779        2.7816573555        7.1025727270
 H          2.1559033610        2.1120263627        7.2953934006
 H          2.3456888038        3.5897732076        6.9106064905
