  612
 
 H         -1.4048777622       -0.1301176344       -0.5329348007
 C         -0.9467782554        0.3415342585       -1.3988287182
 H         -1.5651032610        0.1673914384       -2.2738394548
 C          0.4368102022       -0.2441416726       -1.5876951353
 H          1.0616200639        0.4343448125       -2.1599312360
 H          0.3688459024       -1.1947556224       -2.1024242817
 O         -0.9106220998        1.7437411154       -1.2052133113
 H         -0.3517551703        1.9402002702       -0.4186982435
 N          1.0650468020       -0.4442931442       -0.2726668970
 H          1.0265609068        0.4205352968        0.2869958022
 H          2.0557280689       -0.7410322448       -0.4499541969
 H          0.5533552208       -1.1998144524        0.2198246092
 O          2.9377268379        5.9364409451        3.4166711081
 H          3.1798298900        6.0790817940        4.3325192801
 H          3.7738415055        5.7461925923        2.9354713532
 O          2.9005455028        3.1636712800       -3.6383199623
 H          2.5561330733        2.7692061230       -2.8110187424
 H          2.5986106579        4.0822196866       -3.6684121884
 O          8.3583094870        4.6300252386        0.2889385091
 H          8.1209834917        5.3479190322       -0.3059643112
 H          7.5309767090        4.1035157420        0.3872358882
 O         -2.7410864303        0.2217945710        4.0038463540
 H         -2.8122539262        0.6814556751        4.8501273626
 H         -3.5515736308        0.4860091060        3.5197110297
 O         -3.8545626305        4.9625730540       -0.3216743687
 H         -4.3456109935        4.4841310326        0.3634310031
 H         -4.4065312215        4.9620597010       -1.1304981830
 O         -1.3436618266       -4.3692749496       -4.5924146658
 H         -0.6404189254       -4.2034319206       -5.2415433166
 H         -2.1849286098       -4.2018813318       -5.0615469496
 O          3.2106391198        1.1560432454        0.9368996224
 H          3.0421317286        0.2975529398        1.3510733572
 H          3.4261508155        1.7800666546        1.6445067607
 O          4.6642234311        6.9255205329       -0.0224654032
 H          4.9107742460        7.8338995706        0.1498152742
 H          4.8379657142        6.4275570138        0.8090626883
 O          2.8752315969       -1.4570073198        1.6937845595
 H          2.6687640362       -2.2984063438        2.1258005986
 H          3.7227249934       -1.6044004138        1.2487989346
 O          0.9941410858       -2.3583691294       -3.8517242720
 H          1.9698702093       -2.3157953666       -3.7657705821
 H          0.8128419625       -2.8014071844       -4.7016034606
 O          4.3240577305        3.9660773797       -1.2758369967
 H          4.5118099678        4.4525623359       -2.0900561979
 H          4.3395100620        3.0108913326       -1.4976637042
 O          7.2682428382        3.1204929374       -2.0523411304
 H          7.1502098446        4.0696724470       -1.8871016352
 H          6.5252510982        2.8510422686       -2.6324242674
 O         -2.6512392252       -0.5189931399        1.3463082852
 H         -2.8814567672        0.3940356091        1.0707743796
 H         -3.4151818162       -0.8663699231        1.8430166377
 O          0.4005196020        1.5883206992        5.6625947253
 H          0.9592367704        1.5295270028        4.8566301223
 H         -0.0471496954        0.7160739123        5.6852619471
 O         -1.5752759760        2.2846684827        2.6311398820
 H         -1.8515250571        1.4329166381        3.0110481889
 H         -1.4095248642        2.8687782799        3.3908434282
 O          3.2378665930        0.4202265049       -3.4798543015
 H          3.6707953655        0.8843494230       -4.2191149020
 H          3.6592941965        0.7129498667       -2.6473128584
 O         -1.6536216207       -5.1536923786        4.7722491166
 H         -2.2100122388       -5.3577199337        5.5286216368
 H         -1.8910942437       -4.2440702813        4.5138024464
 O          0.6980389963       -4.8823472329        1.0363554178
 H          1.2612184423       -4.4033449492        0.3955138477
 H          1.2739529433       -5.5562064371        1.4392880743
 O          2.0910689199       -1.5257338512        4.4960848009
 H          1.5157357490       -2.1379055863        4.0050001607
 H          3.0074744923       -1.8323886016        4.3733126227
 O         -0.5578591219       -0.8340113916        5.2275419145
 H         -0.1627384775       -1.7070291511        5.4033901256
 H         -0.5339449267       -0.6919947755        4.2559148133
 O          3.9247254651        3.0694572530        2.8428106622
 H          4.8874578139        2.9100112773        2.8714920511
 H          3.7808216808        3.4691386999        3.7245692323
 O         -1.7858406250        5.6448003810       -2.6241952999
 H         -2.1078246110        4.7784790009       -2.3321687017
 H         -1.2468283142        6.0341864148       -1.9095944990
 O         -4.7642965927        3.6411437036        1.8983061264
 H         -4.1751701943        4.1803575650        2.4656165750
 H         -4.8794435542        2.7769242312        2.3661879473
 O         -3.1642324627       -2.0409954701       -0.7411904433
 H         -2.7750407012       -1.5880631448        0.0326112194
 H         -2.4481321961       -2.2209919578       -1.3730399458
 O          3.3132269359       -1.4281076960       -1.2191638597
 H          4.1528823845       -1.4007887850       -0.7451980390
 H          2.9925961553       -2.3451592525       -1.1600427038
 O          9.1711695590       -0.6761840440       -2.9929540694
 H          9.1544828045       -1.0420988895       -3.9018100116
 H          9.1873532406        0.2951599609       -3.1068906320
 O         -3.1431416445        1.8987217267        0.3780463112
 H         -3.8025046790        2.3977587774        0.8763428077
 H         -2.3297292120        2.4260453948        0.4437173427
 O          1.9676279840        2.2232793321       -1.3643667954
 H          1.5038325186        3.0683151844       -1.2154229494
 H          2.3903463262        1.9721241819       -0.5353251467
 O          1.8981246508       -1.3605040481        7.1791756061
 H          1.8872069586       -1.3795938076        6.1947929816
 H          1.2129933647       -1.9748619652        7.4492857013
 O         -2.1780307291       -4.4603845505        1.1142547801
 H         -3.0999549763       -4.1554652139        1.2339567070
 H         -2.0836370050       -5.2838629168        1.6280811413
 O         -0.1558057184       -1.1484908328       -7.1730964288
 H         -0.5752537409       -0.9491373000       -6.3035404597
 H         -0.4999592683       -0.4386238647       -7.7449092247
 O          2.2972843155        6.7350580791       -1.4514707745
 H          3.1215484006        6.7538649677       -0.9339294109
 H          1.6972696440        7.3923376170       -1.0905382057
 O         -2.5444221490        4.0666958214       -6.8614911463
 H         -3.0637516494        3.2899077540       -7.1152926494
 H         -1.6189280367        3.7857640607       -6.8547355051
 O          6.7619674211       -5.0092764029       -4.1329625007
 H          6.5348200210       -4.1273765054       -4.4909298935
 H          7.7273121450       -5.0172961051       -4.0794007109
 O         -2.4586555172       -4.7056605736       -1.5447367285
 H         -2.3839273845       -4.6836972819       -0.5641980336
 H         -1.5796936135       -4.4241263430       -1.8646450399
 O        -11.0635699555       -1.7567862297        2.8480263806
 H        -11.6970837669       -1.3345773902        2.2403505280
 H        -10.6741819505       -2.4938641241        2.3408510614
 O         -9.9693343473       -3.6499011977        1.2244255044
 H         -9.1106156329       -3.1841103217        1.0570445888
 H         -9.7320845192       -4.5595559338        1.4130456490
 O          0.2743518836       -3.0284304705        2.9801410528
 H          0.3560157266       -3.6931711785        2.2684721304
 H         -0.6677852714       -2.9955647054        3.2200447531
 O         -0.3028700259        3.1485778441       -3.4032870015
 H          0.1643747919        3.8513159427       -2.9256174342
 H         -0.6043367943        2.5670884469       -2.6836145783
 O         -0.3966769261        5.5251652785       -4.8937758275
 H         -0.8933709718        6.0365188095       -5.5327121565
 H         -0.9408773247        5.5053702400       -4.0694356635
 O         -7.1296707414       -0.6047223562        3.1619161204
 H         -7.8019500136       -1.0534913530        3.6954041173
 H         -7.3969479677        0.3242367741        3.0644491615
 O          7.8150806063        2.0075144213        5.6746266740
 H          8.6824637741        1.7417786599        5.3222368352
 H          7.4228637466        1.2057854200        6.0461969858
 O         -5.3346540361       -5.8740058455       -0.6109450171
 H         -4.5678914253       -6.4249916005       -0.3329656724
 H         -5.2792268896       -5.7939370447       -1.5661751172
 O          2.5094168420        4.1174144773        0.7879738256
 H          3.0884473234        4.1741973149        0.0084348911
 H          3.0830883922        3.8607243422        1.5335805603
 O          6.1014671957       -0.1067156519       -3.8613407381
 H          5.7107347578        0.7904859162       -3.8500504049
 H          6.4553941860       -0.2378487823       -2.9653524923
 O          0.9651723061       -5.5163958852        4.0339831891
 H          1.3700230140       -6.3661126573        4.2086600335
 H          0.0153168494       -5.6079362798        4.1877352735
 O         -4.1730455308       -4.5931816552        6.0153648387
 H         -4.2102277905       -4.5264342766        5.0385930017
 H         -5.0660035024       -4.3951109557        6.3064486388
 O          5.0167236784       -3.5170163834       -2.0626725271
 H          5.0133608764       -3.6942024817       -1.1149303316
 H          5.9100416376       -3.1886019294       -2.2793502245
 O          2.7359044620        4.0743656025       -6.4016338493
 H          2.6227493914        4.7125018950       -5.6884197128
 H          1.8305306680        3.8110342736       -6.6520002461
 O          6.0297443146        3.4377001287        0.6988827293
 H          5.4607708418        3.6270209526       -0.0746141470
 H          5.9228448128        2.4930236750        0.9263965098
 O          2.3217060670       -0.7305486969       -6.3417978871
 H          1.4403261551       -0.8368081223       -6.7697978595
 H          2.1931163922       -0.9593846513       -5.4155616100
 O         -1.7762866981       -2.1905282993       -3.0448817033
 H         -2.6318025002       -1.8910753279       -3.4160283224
 H         -1.5617478959       -3.0173200352       -3.5135022910
 O          0.6600208462       -3.5872984298       -6.2379242139
 H          0.3953027299       -2.8580512722       -6.8190355541
 H          1.6295561101       -3.7156849356       -6.3377587597
 O          1.5477261281        4.3636306910        6.2195696953
 H          1.3162787266        3.6575820953        6.8252197750
 H          1.1018826622        4.1707475857        5.3729258763
 O         -1.2760346584        1.1458420129       -8.0319364871
 H         -0.7817907122        1.8824073905       -7.6572278971
 H         -2.1979678836        1.2425776519       -7.7391016032
 O          4.6482607706        1.3089828794       -1.3412963406
 H          4.2233377577        1.1248117832       -0.4850767311
 H          5.5025322360        0.8388970613       -1.3398748083
 O         -3.6947314676        1.5107665231        6.3187697875
 H         -4.6201202286        1.3309539942        6.0790308929
 H         -3.3652347916        0.7067581512        6.7728321930
 O          4.0295612248        4.0571890368        5.3295030920
 H          3.1658877965        4.2434760542        5.7588050106
 H          4.3564923056        3.2325420671        5.7317856829
 O          0.9746392259        1.2844662907       -4.6520400039
 H          1.7853943519        1.0016948920       -4.1907368750
 H          0.5963966833        2.0191437677       -4.1099414961
 O         -3.6484383238       -3.6664301591       -5.8198077493
 H         -4.1671121199       -4.4436531654       -5.4821654909
 H         -3.6888519470       -3.7155553145       -6.7741751189
 O         -1.0263917966       -0.3402434005       -4.8030809235
 H         -0.2219410123        0.2232273742       -4.7001562504
 H         -0.9875066644       -1.0447310464       -4.1286457400
 O         -0.6559629607       -6.7105016612       -0.4620474527
 H         -0.5473607478       -6.5920503713       -1.4187185223
 H         -0.2838709060       -5.9267272523       -0.0064199002
 O          9.1802595943       -4.9203775790        2.0299403981
 H          8.3958667262       -5.4112406454        1.7670162800
 H          9.1201525170       -4.7776932455        2.9934295794
 O          2.5243199228       -3.9590297043       -0.6829810516
 H          2.4717865197       -4.6851656635       -1.3148542289
 H          3.3043647773       -4.1371097301       -0.1145157212
 O         -4.8804315852        1.2390941280        2.8855137411
 H         -5.5891246985        1.2149323608        3.5506590912
 H         -5.2410725058        0.8543647623        2.0555220876
 O          8.9665233916        3.6778510654        2.7433655575
 H          8.8498070167        4.1827234574        1.9199326980
 H          9.9086611280        3.5248152933        2.8516891696
 O          9.1706124165        1.9631491018       -3.6128925803
 H          8.7812017819        1.7788052850       -4.4841207416
 H          8.4993607689        2.4590624522       -3.1050347445
 O         10.9624113050        3.8292642500       -0.0106707080
 H         11.0877404634        3.3352444143        0.8130179477
 H         10.0411920986        4.1408117175       -0.0036829833
 O         -3.9677111748        0.2590234248       -1.8457146148
 H         -3.6870169796        0.8195808779       -1.1127008445
 H         -3.8553743636       -0.6556327219       -1.5362946803
 O          5.5345070903        3.8885997736       -6.1892184228
 H          5.9491977232        3.3482770109       -6.8669560535
 H          4.6009902077        3.9651467977       -6.4431085375
 O         -0.2386162575       -0.4499872328        2.5228746755
 H          0.0950336142       -1.3584397818        2.4366517181
 H         -1.1199182428       -0.4538822591        2.1042358347
 O         -8.4215705191        0.2052573046        0.7010773972
 H         -8.8308166661        0.4688325298        1.5495351010
 H         -9.1093499618        0.2947425245        0.0203612501
 O         -8.5007952502        1.1306243409       -4.6172939773
 H         -7.7258750674        1.0344222588       -4.0377845909
 H         -8.8587067949        0.2322596849       -4.7643587750
 O          6.3743559439       -6.3597348526        1.2530272156
 H          6.3781007993       -6.2101451353        2.2178913133
 H          5.8124207757       -7.1161421670        1.0782792351
 O          7.5216493954       -3.9568193323       -0.0143856962
 H          7.0562475374       -4.7541023896       -0.3188310687
 H          7.4838038251       -3.3332420427       -0.7752675914
 O         -6.2376184812        1.2673590742        5.2989256749
 H         -7.1743542434        0.9958502683        5.3960902419
 H         -6.2850926191        2.2448231689        5.2434309945
 O          1.2140101358        3.8049322897        3.5432278124
 H          1.6831154115        2.9833325120        3.3659963738
 H          1.8451937032        4.5364571699        3.4221849161
 O         -6.8052002791        5.0834200779        2.8194378660
 H         -6.2120695485        4.4699397876        2.3244874600
 H         -6.4494774279        5.9651969437        2.6592834682
 O         -1.3896512369        4.0708748234        0.2330949040
 H         -1.2326763775        4.4234928214        1.1319202747
 H         -2.2380048511        4.4507008226       -0.0546757215
 O         -0.8679209198        5.2729142674        2.5574783739
 H         -0.4039676270        4.6760821894        3.1686475253
 H         -0.1684970134        5.8403860574        2.1775134092
 O          2.9941333970       -3.9137348949        2.9397861150
 H          3.3069386218       -3.8807467154        3.8622045227
 H          2.2051599184       -4.4716454265        2.9939849892
 O          6.5946887163       -3.0565518143        2.3750118213
 H          7.1776184780       -2.3784679266        2.7715874340
 H          7.0550222880       -3.4220793484        1.5910355299
 O         -4.0842170719       -1.4690827398       -4.1680298096
 H         -4.0757607898       -1.9247148951       -5.0186633523
 H         -3.9845629660       -0.5115420892       -4.3149336737
 O         -7.4775913702        2.1149111187        2.8578721775
 H         -7.5085943447        2.5724748204        2.0026124971
 H         -8.1217022247        2.5456601966        3.4358550392
 O          5.8285513122        1.0747459450       -7.4569680379
 H          5.0631988757        1.2760421452       -6.8740135381
 H          5.6893271993        0.1568802769       -7.7146458904
 O         -3.6934316933        4.5491225145       -4.5142919218
 H         -3.2112042179        4.5143941112       -5.3673453504
 H         -3.2201038483        3.9659351977       -3.9008464470
 O          6.6771091184       -3.1956903187        5.7542633252
 H          6.2107736744       -3.5230663711        6.5249004241
 H          5.9837073424       -2.7981596235        5.1849675537
 O          4.4516819742       -2.2058273925        7.1594489807
 H          4.9540287693       -1.4810311541        6.7632713757
 H          3.5712521088       -1.8449876266        7.3687193156
 O         -0.6031850136       -6.6075279772       -3.2509435200
 H         -1.4161978195       -7.1238433547       -3.3087200222
 H         -0.8236543715       -5.7731528670       -3.7148542978
 O          5.4189033909        2.4764275501       -3.8626794646
 H          5.6562381414        2.8537779271       -4.7251584606
 H          4.4731703519        2.7401032046       -3.7412422072
 O          6.3899437064       -5.9123639070       -1.6128244856
 H          6.4658988102       -5.5228208928       -2.5141124921
 H          6.9761615674       -6.6675462699       -1.5906131080
 O          4.5421050381        0.5220791081        3.8227874137
 H          4.7002221070        0.9622275683        4.6820849656
 H          3.6215459235        0.7457879693        3.5987793553
 O         -0.5275070571       -2.5095694814        0.2145264915
 H         -0.2363053973       -3.0043827885       -0.5664354877
 H         -1.0752366697       -3.1362112121        0.7110437037
 O          5.9170951913        0.8759830468        1.5660304714
 H          5.4625142208        0.8695328957        2.4341082494
 H          6.8752608688        0.9245502842        1.7821886713
 O         11.7148714184        0.2532046361        0.5083658603
 H         11.1729688116       -0.5016375508        0.2239106148
 H         11.8021279789        0.7831194428       -0.2971359085
 O         -6.8031081300       -3.3461592417        5.4292416632
 H         -7.6664624695       -2.9112210663        5.4321074273
 H         -6.1413956679       -2.6243728180        5.4285244879
 O         -1.9421733393       -3.5036700237        7.2357953541
 H         -2.1892240585       -2.5667153052        7.3203220860
 H         -2.7541506955       -3.9349114035        6.9203607608
 O        -10.7761277461        1.5906665590       -3.3321269470
 H         -9.8927335178        1.5566940666       -3.7840594623
 H        -11.3926005304        1.2157648876       -3.9610831775
 O         -4.6628562102       -3.5004178651       -2.4623298121
 H         -3.8166205997       -3.8885148843       -2.1532869985
 H         -4.4473397352       -2.8101419741       -3.1106802963
 O         -3.6146785860        4.1376229730        6.1585099252
 H         -3.6428720858        3.1559466726        6.2638024943
 H         -3.6196274373        4.5104630119        7.0400645964
 O         -9.4563589816        4.8200441853        2.3019625295
 H         -8.4827004574        4.8822946295        2.3919027258
 H         -9.7102144532        5.4589113075        1.6353621749
 O         -5.9752857987       -1.7792072984       -0.8755618600
 H         -6.6003590729       -1.3261592120       -1.4798521926
 H         -5.4576696444       -2.4021506441       -1.4153936471
 O         -5.4032658143        2.6060352403       -1.1260668322
 H         -5.8026942001        2.2495485916       -1.9516419583
 H         -5.3505443817        1.8161692716       -0.5479526068
 O         -2.7830338385       -0.9466678961        6.7582325385
 H         -3.5375560019       -1.2480154709        6.2153800843
 H         -2.0142554865       -0.8938948433        6.1517435148
 O          6.4379287192       -5.3718522421        3.7281656111
 H          7.1505822417       -5.3839635973        4.3704699177
 H          6.4358941146       -4.4657153943        3.3429177974
 O          6.8593422138       -0.2186791434       -1.3124389424
 H          7.6323008147        0.2637278767       -0.9571093669
 H          6.5270697944       -0.8362946392       -0.6426797278
 O         -6.7727749332       -4.0654579311        2.8554563885
 H         -7.0560389589       -3.2811276929        2.3450723579
 H         -6.9082205246       -3.8633944082        3.8071091163
 O          1.2559741646        6.3872203842        1.3631695840
 H          1.7848128255        6.6355485859        2.1319743281
 H          1.6721058549        5.5435809060        1.0612369112
 O         -4.8706835807       -5.7992494204       -4.9043049395
 H         -4.3579897840       -6.2492751700       -4.2134289511
 H         -5.7074727444       -5.5159710001       -4.5054830049
 O        -10.5026070760        0.1367136911       -1.0643788588
 H        -10.6787731174        0.7152517574       -1.8338826836
 H        -10.3930495677       -0.7574571587       -1.4255480758
 O         -8.9046724282        0.8479999772        5.4368470803
 H         -9.2009889302        0.8350363737        4.4972805106
 H         -9.1695418322        1.7197758930        5.7447354368
 O         -9.0130321460       -1.8126012540        4.8108018183
 H         -9.1227370228       -1.0115111654        5.3415705911
 H         -9.8242517783       -1.9203691246        4.2972729155
 O         -4.6685066999       -3.6395253342        0.7465881501
 H         -4.2488486343       -3.0526276117        0.0848187700
 H         -5.0474910559       -4.3863313208        0.2540133848
 O         -6.8561228056       -4.5004432849       -3.4872609007
 H         -7.5476499244       -4.5717518052       -2.8087677371
 H         -6.0583449020       -4.1680256346       -3.0234708858
 O         11.0054453612       -2.9406023125       -4.6270964166
 H         10.3242460471       -2.4829257695       -5.1519736472
 H         11.5308097997       -2.2577267992       -4.2072301657
 O          0.0904543401       -4.0020684513       -1.9996298701
 H          0.3783252384       -3.3571844799       -2.6859438159
 H          0.6630405743       -4.7702458421       -2.0950664732
 O         -4.7909812904       -1.6599308877        2.5314564696
 H         -4.8690469733       -2.4456980362        1.9622988644
 H         -5.6835440774       -1.2630816323        2.5730011860
 O         11.3530411985        2.1668729094        2.2726718423
 H         11.4003456934        1.3889099722        1.6560946070
 H         12.2555387724        2.3306637388        2.5480416306
 O         -3.2111375329       -7.3120770341        0.0923704091
 H         -3.1679766896       -7.4031407143        1.0495562463
 H         -2.2931420987       -7.0667329293       -0.1623354870
 O         -6.0953258628        0.1466695889       -6.2274397818
 H         -6.8660136470        0.6896950308       -6.0287275505
 H         -6.2619592168       -0.6973274262       -5.7828793812
 O          0.6923934988        4.5325528068       -1.3770968664
 H          1.1756910984        5.3605654590       -1.2500852986
 H         -0.0484178886        4.4784747755       -0.7395221653
 O          5.3892186615       -1.4517948458        0.5675902236
 H          5.5581605473       -0.5694439597        0.9893473929
 H          5.7595967950       -2.1368618750        1.1500845451
 O          0.5195629728        2.0036237544        1.0854308330
 H         -0.2550228198        2.1354510605        1.6851897459
 H          1.0436322498        2.8147637977        1.0932546962
 O          3.7106309535        1.5190202580       -5.9029844844
 H          3.0815936388        0.8363654456       -6.2012053993
 H          3.2630788750        2.3800518998       -5.9563390317
 O         -5.3970062493        5.3032405167       -2.4902664814
 H         -6.1878575459        4.7587475712       -2.7101559429
 H         -4.7902246411        5.1549095054       -3.2332360155
 O         -8.3024597296        1.9291728141       -1.5651319575
 H         -7.9254731455        2.3013445547       -0.7473243475
 H         -9.2366414118        2.2024303986       -1.5158460375
 O          8.7532734559        1.4258253359       -0.4869120280
 H          8.2459342375        2.1526036063       -0.8906718771
 H          9.6351883334        1.4355977399       -0.9167657911
 O         -5.0290822793        6.9989795904        1.9087503854
 H         -4.4227885512        7.4759738912        1.3146550160
 H         -4.4393805428        6.5045250716        2.5000921733
 O          9.1403421029       -2.1989320135        1.6838138440
 H          9.4611352022       -1.8863899627        0.8193800160
 H          9.2015447639       -3.1728810370        1.6697404779
 O          2.5294703454       -6.6880524803        1.8772247408
 H          3.1156633767       -6.7894538203        1.1110973658
 H          3.0793235341       -6.6171706305        2.6824388048
 O         10.3917092327       -1.7374479604        3.9027896977
 H         11.3324520900       -1.8713158197        3.7918244134
 H          9.9812711896       -1.8336692901        2.9942305706
 O         -3.3907633882       -6.8703848946       -2.7827247437
 H         -3.5267818628       -7.5191341919       -2.0882195725
 H         -3.0333242428       -6.0703073524       -2.3319075194
 O          7.5404263051       -2.7033165671       -2.3154261691
 H          8.1476381029       -3.3384449517       -2.7515156546
 H          7.9269647282       -1.8186164565       -2.4482235777
 O         -4.9935350402       -1.3374380525        5.1925159345
 H         -4.7964908010       -1.5098690797        4.2480604054
 H         -5.5056678594       -0.5180788247        5.2032012246
 O         10.0935621444       -4.4278636013       -0.6237810640
 H          9.1662903686       -4.3152944383       -0.3066025338
 H         10.5425873306       -4.8953299742        0.0817887630
 O          9.3084939694       -4.4833481310       -3.2449657177
 H          9.7383676561       -4.6648425880       -2.3952576007
 H          9.9758177593       -4.0209670811       -3.7924657385
 O          4.5637321347        1.5960098660        6.2541768157
 H          5.2731874240        1.1632926200        6.7327227587
 H          3.7254685022        1.4768738146        6.7752611445
 O          8.9558163059       -4.0680610313        4.5980126708
 H          8.1707319953       -3.7235343470        5.0624881905
 H          9.5728617853       -3.3249642187        4.5381477731
 O         -2.2034350807       -6.6884139432        2.6295324817
 H         -1.3957304762       -7.2118394061        2.4386800393
 H         -2.0328289483       -6.2389476373        3.4771920422
 O         -9.8062688070        0.6315100838        2.9308593892
 H        -10.3189655350       -0.1993451836        2.9298827600
 H        -10.3558364422        1.3363165405        2.5255769689
 O         -5.7665861183        0.4972676550        0.5106508489
 H         -6.7370638924        0.5216154914        0.6128612959
 H         -5.5929871448       -0.3414307572        0.0426230520
 O        -10.0383071958       -2.3282964998       -2.1524541135
 H        -10.8831169761       -2.5593584720       -1.7029085832
 H         -9.4487170961       -3.0721534360       -1.9236611974
 O          4.9657249308        5.3728763287       -3.7424375169
 H          5.3028730983        4.9762636610       -4.5551938241
 H          4.0949231077        5.7289580614       -3.9534838827
 O          3.3107641206       -3.7961582348       -6.0313325768
 H          3.4969550310       -3.0552503331       -5.4223292677
 H          3.4967700564       -4.5749312338       -5.4894989950
 O         -9.5866585753       -1.3537166786       -4.7943039310
 H         -8.7174721617       -1.7597292256       -4.9665831787
 H         -9.9111786795       -1.7603963343       -3.9796128247
 O         -9.0506450148        3.5041996855        4.7627249949
 H         -9.4232506916        4.1263265287        4.1275844521
 H         -8.2530958582        3.9050702900        5.1267351846
 O         -4.2136805755       -4.5519279840        3.3099423305
 H         -5.1469027439       -4.3885860777        3.0426286731
 H         -3.9819122204       -5.4333781371        3.0117578340
 O         10.1194403987        0.9875006873        4.5522308588
 H         10.2342415004        0.0380309597        4.4012346432
 H         10.4838143681        1.4259720555        3.7699865992
 O         -3.7220332004        7.6306939814       -2.5887812467
 H         -4.5499270991        7.1568268411       -2.7142707352
 H         -3.0201665996        6.9826166984       -2.7783046022
 O        -11.0050267779        2.5821518990        1.5894179749
 H        -10.5317474975        3.3521398365        1.9413285152
 H        -10.9240377957        2.6731050567        0.6252397371
 O         -7.7888479806       -0.6410570977       -2.3702519513
 H         -7.9286358475        0.2825599893       -2.0825887547
 H         -8.6221826738       -1.1166667407       -2.2707944173
 O         -3.3915562959        5.3072581922        3.4566740518
 H         -2.4602653041        5.3640787426        3.1614019046
 H         -3.3684610168        5.0291536803        4.3778278837
 O          3.9756680325       -6.7975725822       -0.4716803085
 H          3.2614975576       -6.7633620940       -1.1220539568
 H          4.7685115118       -6.4444847524       -0.9066444996
 O          2.1639905333        5.7734793791       -4.0317237225
 H          2.1511371822        6.1877671837       -3.1523112560
 H          1.2387078433        5.7768524311       -4.3453144253
 O          0.0488706719       -7.9618266377        1.8924864717
 H         -0.1508543343       -7.8224926854        0.9551075707
 H          0.9485009632       -7.6194341871        2.0093673957
 O        -12.2515251515       -0.2071218591        0.9413416306
 H        -12.4936985692        0.6524925986        1.2926864047
 H        -11.6136877049       -0.0170574989        0.2194346006
 O          3.2110116708       -4.0947155549        5.6378789872
 H          2.2879555233       -3.9223058849        5.8677274604
 H          3.7442103290       -3.4728952660        6.1690081383
 O          3.9163727588       -6.3935362031        4.1941457669
 H          4.8379844413       -6.1199121243        4.0733705473
 H          3.5516253827       -5.7449626602        4.8150754420
 O          3.6208786804       -2.1064322128       -3.9449427982
 H          3.5896771698       -1.1459307968       -3.7180305897
 H          4.0868845500       -2.5273612934       -3.2080333317
 O          8.8340428769       -1.5932214577       -5.5041345902
 H          7.9698733810       -2.0528987579       -5.4458579842
 H          8.6196952148       -0.6894235102       -5.8134273142
 O         -9.1232642465        5.3760399866       -1.5599304299
 H         -8.4553191277        5.7980227943       -1.0065059022
 H         -8.6360547485        4.9920114296       -2.3072331241
 O         -7.5116094402        3.8783861296       -3.2363899469
 H         -7.7399796019        3.0672730717       -2.7306972222
 H         -7.2339784029        3.5783808901       -4.1114267214
 O          6.4801728852        2.7654150242        3.5080069730
 H          6.8314704585        2.4610403610        4.3688775392
 H          7.1958582404        3.2813539744        3.1254466913
 O          7.6214829722       -0.9472509985        3.7981632605
 H          7.9081137365       -0.2221928206        3.2112639128
 H          8.4367974342       -1.2840162236        4.1782531986
 O         -7.6966155983       -5.5599048926        0.7663819444
 H         -6.8835362322       -5.8689952791        0.3379098789
 H         -7.3969770269       -5.0855507175        1.5635901457
 O         -1.1473190498        3.6424073492        4.9121181457
 H         -1.9067537569        3.8203207386        5.4755167681
 H         -0.6448665229        2.9011728485        5.3029288053
 O         -5.7606012741        3.0554811053       -5.2741004099
 H         -5.4946384886        2.6755024769       -6.1155895103
 H         -5.0400727012        3.6700024143       -5.0127132620
 O         -7.3201584712        3.4543834744        0.4608848541
 H         -7.3947612063        4.4137658422        0.3482934206
 H         -6.4935833915        3.2248763439       -0.0153763305
 O        -11.9885995966       -2.8089315367       -0.4420592050
 H        -12.3775397014       -2.0359780866       -0.0190838140
 H        -11.3653880545       -3.1916592771        0.2015197949
 O          4.6426058091       -4.2354021151        0.8384085227
 H          5.2182118690       -5.0145471983        0.9073602452
 H          4.1307407349       -4.1820541903        1.6701735645
 O          6.6684228786        5.8142790941       -1.6280381766
 H          6.2666103081        5.8586695645       -2.5070063726
 H          5.9698208102        6.1307093971       -1.0299660467
 O          4.0659901366       -5.3573929127       -3.8545399693
 H          4.8904209603       -5.7196180131       -4.1934261203
 H          4.3538426219       -4.6670846851       -3.2208601662
 O        -10.6211594608        3.2087396305       -1.0697241232
 H        -11.0816107922        3.0345175092       -1.8961392120
 H        -10.1666060974        4.0721709326       -1.1749490357
 O          7.8053673968        0.8596490270       -5.6853144988
 H          7.2011951701        0.4808876480       -5.0073269225
 H          7.2184893815        1.0331657657       -6.4493533205
 O          2.2962817651        1.2955181718        7.5146913752
 H          1.5820717791        1.4914439650        6.8717936104
 H          2.1998227464        0.3433587770        7.6729623329
 O          8.4882624006        1.0151630876        2.1128387131
 H          8.7517144931        1.0826973695        1.1738887375
 H          8.6393783819        1.8982652171        2.4934172411
 O          4.7664146588       -2.0663954393        4.1707607532
 H          4.8013172444       -1.0896653208        4.0462363551
 H          5.1219840738       -2.4556662334        3.3642832272
 O         -6.0380466350        1.2478100336       -3.2982794864
 H         -5.2823568470        0.7122393986       -2.9990642270
 H         -5.7588873808        1.7650689537       -4.0755361664
 O          5.2610354995        5.5417436802        2.1524100878
 H          5.5413855005        4.7004854462        1.7311021793
 H          5.7758280240        5.6136699036        2.9858698377
 O         -3.1430281923        7.5229433659        0.0202871094
 H         -3.3845847620        7.8588029994       -0.8665438092
 H         -3.3327193135        6.5626088423       -0.0443970918
 O         -6.2718518636        3.9803351041        5.2168380354
 H         -5.3754126899        4.2112435539        5.4947555939
 H         -6.4159483424        4.3986268099        4.3426079834
 O         -6.7830652204        6.0826277640       -0.1085637581
 H         -6.2078969100        6.4850091272        0.5630769678
 H         -6.2561387390        6.0127409867       -0.9157205839
 O          0.1345933178        3.2277876081       -6.3842056526
 H         -0.0496297967        3.8958200455       -5.6959134188
 H          0.4142549175        2.4337701643       -5.8924869537
 O          1.8473272756        0.9300893255        3.5044630329
 H          1.8885119111        0.0161559281        3.8698899581
 H          1.1896908295        0.8555135238        2.7916978342
 O         -0.5549687355        7.0396209253       -0.6249950295
 H         -1.4123316142        7.3757156493       -0.3002979119
 H         -0.0159430619        6.8637392748        0.1571005137
 O         -3.8197934518        1.5884231227       -6.9404319762
 H         -4.5700476865        0.9887264917       -7.0533489281
 H         -3.5722739632        1.4705390595       -5.9942385847
 O         11.1199778228        1.7912089905       -1.6957354409
 H         11.1919623438        2.6609112023       -1.2437775361
 H         10.7331834534        1.9552527429       -2.5665668275
 O          4.7521373131       -1.6487665756       -7.2362604474
 H          3.9202982529       -1.2661229731       -6.8940606871
 H          4.4926310111       -2.4911256968       -7.6160753235
 O         -3.1966880056        1.1368066799       -4.4142178125
 H         -2.3381628788        0.6756097738       -4.5291123051
 H         -3.1168298103        1.7397244727       -3.6536036643
 O         -3.0270001372        3.0239198191       -2.3543708862
 H         -3.8811633604        2.9415900228       -1.8799976892
 H         -2.3716757355        2.5923515124       -1.7834353490
 O          6.2590041791        5.4671390943        4.6103523697
 H          7.0211764574        4.9140016179        4.7943703552
 H          5.4883052736        4.9861397253        4.9675488292
 O         10.2030488796       -1.6730104189       -0.7106949767
 H          9.8737819667       -1.2741422029       -1.5399954927
 H         10.3581105711       -2.6156833182       -0.8817762560
 O         -7.7033688964       -2.3514996707        1.0105715330
 H         -7.0176486744       -2.3545265691        0.3084814765
 H         -7.9734952602       -1.4109483597        1.0687782775
 O         -6.9540946766       -2.0051970990       -4.6500519166
 H         -7.0001925353       -1.4712607512       -3.8396934990
 H         -6.9086612189       -2.9365366275       -4.3701671330
 O         -8.7053350047       -4.5863569432       -1.4675832931
 H         -9.3815621189       -5.2415062225       -1.6424323504
 H         -8.3167384801       -4.8315365197       -0.5893188416
 O          1.9831337015       -6.1255829850       -2.3836570138
 H          1.2360814395       -6.5768051342       -2.8011007085
 H          2.6502302308       -5.9600340274       -3.0770261015
 O         -2.2923753744       -2.6302634881        3.7908475720
 H         -2.4615632764       -1.6769532601        3.8722778847
 H         -3.0845588458       -3.0338706515        3.4097884932
 O          6.3068190868       -2.4916871946       -5.1464703835
 H          5.7807078062       -2.2915704181       -5.9442071450
 H          6.1028661874       -1.7512043535       -4.5474143225
 O          6.5481117184       -0.4222288948        6.2337228824
 H          6.7501289092       -0.5872756838        5.2872058851
 H          7.0313993873       -1.0989323802        6.7135756568
 O          0.3938201917       -3.3376197482        5.9099353949
 H          0.3836307607       -3.9051901749        5.1272794536
 H         -0.4211557523       -3.5398846947        6.4169441460
