  222

 H         -0.5425054107       -1.1597996604        0.9180873586
 C         -0.6112510044       -0.5412956733        0.0100749181
 H         -0.5391308388       -1.1969144477       -0.8712436579
 C          0.5103658650        0.5037878323       -0.0094871780
 H          0.3911098477        1.1518924068        0.8600966305
 H          0.3944399207        1.1152669930       -0.9056411606
 O         -1.7891825164        0.2100258081       -0.0077307044
 H         -2.5646581744       -0.3620747658        0.0026734607
 N          1.8637421169       -0.1172780924        0.0059475169
 H          1.9871272149       -0.7237037703       -0.8163106301
 H          1.9839787960       -0.6890763250        0.8531041519
 H          2.5930828894        0.6072400307       -0.0077051335
 O          1.5715268360       -2.5410429797        1.2456916581
 H          0.8789333368       -3.0751560073        0.8107347360
 H          1.3557243439       -2.5630010113        2.2060424039
 O          1.8061222606       -1.7990143231       -2.0758079628
 H          1.5675576900       -2.7330658335       -1.9062665826
 H          2.5601559218       -1.8331036629       -2.7026091712
 O          2.9606556711        2.3648267677       -0.2768441265
 H          3.6527212850        2.5169817026       -0.9419251663
 H          2.6560800181        3.2523102136       -0.0131868263
 O         -1.7095237522       -1.4160946945        3.3178177274
 H         -1.6114008225       -0.5057165209        2.9744038260
 H         -2.4027637670       -1.3190436800        3.9923917691
 O         -1.9010359472        1.1857292425        2.4746905991
 H         -1.7235694459        1.0995505821        1.5209309365
 H         -2.8843536339        1.1416199825        2.5382351717
 O         -3.5369999500       -1.6758419887       -0.1825504704
 H         -4.4853996420       -1.5672216961        0.0548261265
 H         -3.1579241079       -2.3440094752        0.4203955993
 O         -0.0454183587       -0.5473279087       -3.5355352975
 H         -0.4737037748        0.2328382335       -3.1341849275
 H          0.5384053666       -0.9667913629       -2.8730976968
 O         -1.6297201681        1.3107234907       -2.4332744367
 H         -1.6758738320        1.0398619508       -1.4961787510
 H         -2.4800963054        1.0030086015       -2.8116839656
 O         -4.5061759958        1.0919159017        2.2128595001
 H         -4.6141965481        1.0413793464        1.2421354791
 H         -5.0956682826        0.4124297575        2.5927046799
 O         -4.3659339608        1.3597526372       -0.4492540826
 H         -3.6313439659        1.9989645342       -0.3578941723
 H         -4.2127427888        0.8442708931       -1.2693736039
 O         -2.7099627906        3.4144537205        0.0057805259
 H         -1.8597519314        3.3455214222        0.4768240768
 H         -3.3639499866        3.7325466763        0.6614476612
 O         -4.0473540167        0.3174864581       -2.8475833315
 H         -4.7163305642        0.6032197632       -3.4976736461
 H         -4.0188763486       -0.6612211627       -2.8849715181
 O         -2.4466392799       -3.3618341670        1.6019045485
 H         -2.1591457906       -2.7017720910        2.2697225889
 H         -1.6274064002       -3.7288583113        1.2268751529
 O          3.5570395894        1.7684022034        2.3323536093
 H          4.4935645065        1.8151174186        2.6027115951
 H          3.5237491326        1.9826166002        1.3794191659
 O          4.3702347266       -1.8913592888       -0.6188931720
 H          4.0827219484       -1.1314228433       -1.1647517876
 H          4.1094181983       -1.6849779577        0.2951368983
 O          1.7247743364        1.7845413050       -2.9159387776
 H          1.0391802863        1.8527788139       -3.6099691996
 H          1.5601593084        2.5225699535       -2.3055957673
 O         -0.2833144098       -4.0943056270        0.1073622790
 H          0.2811058766       -4.7962942403       -0.2283681716
 H         -0.5928037937       -3.6166047664       -0.7056381455
 O         -0.2430414094        3.2435833938        1.0940812442
 H          0.4046155778        3.4089063467        1.8084561908
 H          0.2191927087        3.4659868913        0.2683104548
 O          3.7485683066       -0.8736457194        1.8209829383
 H          3.6325617690       -1.4555389236        2.5910043203
 H          3.6053418293        0.0481722155        2.1249947096
 O         -1.6518973869        3.9491961425       -2.4369069911
 H         -2.1316259538        4.0517979305       -1.5967035799
 H         -1.5571477277        2.9688600420       -2.5156374048
 O          3.8409511716        0.2942291520       -1.9841858982
 H          4.4250406362        0.2223557156       -2.7677908097
 H          3.0545358774        0.7782771954       -2.2874823371
 O         -7.0186619751        1.0232204826        0.8401575305
 H         -7.7202607767        0.8260119103        1.4656674544
 H         -6.9381189229        2.0128371815        0.8036280501
 O          1.7886357143        0.0656813794        3.7067526357
 H          2.6510250752        0.2622980464        4.1003859668
 H          1.1540241371        0.6995645538        4.0822031393
 O         -4.0329011401       -2.3277474819       -2.7552548239
 H         -3.7619773376       -2.2936108645       -1.8128323311
 H         -4.9951484982       -2.4037399971       -2.7539777631
 O          5.2854056034        1.0517391938        0.3312092864
 H          6.2437173951        1.2122397375        0.3153917854
 H          4.9860961444        0.8483352299       -0.5649994435
 O          6.9631024797       -1.3301390451       -0.6206206911
 H          6.9214962464       -1.1669319200        0.3564929689
 H          6.0315725239       -1.5820150603       -0.8082255438
 O         -6.1072783636       -1.5489477064        0.2795875485
 H         -6.3867277791       -0.6596654555        0.5512150240
 H         -6.4240757238       -1.6740306344       -0.6344500793
 O          4.1829990501       -4.1256847394       -2.0414438305
 H          4.2406665119       -3.3440254680       -1.4500121816
 H          4.2474141953       -3.7458801205       -2.9270217490
 O         -7.4083645571        0.8839587469       -1.8032196509
 H         -6.9559293490        1.7020381183       -2.0896948014
 H         -7.2334504637        0.8927711654       -0.8356961922
 O          0.8156357196        3.9239014668       -1.3740454969
 H          1.2660992279        4.7487685023       -1.1810924254
 H         -0.0296819675        4.1249518445       -1.8312851082
 O         -4.5053073105        3.8056380665        1.9742859481
 H         -3.8936632848        4.1223452000        2.6544004242
 H         -4.6297272838        2.8558457743        2.1700630080
 O          5.3796848144        0.1542900734       -4.1557757987
 H          6.2033235988        0.4324099305       -3.7323530660
 H          4.9378184394        0.9801387221       -4.4684583577
 O          1.5061882614       -4.4702963531       -2.0347417837
 H          2.4820745187       -4.5528467969       -2.0716446659
 H          1.1810415615       -4.5618264146       -2.9356073107
 O          3.7283127417       -2.0799363345       -3.9496910557
 H          4.4427768422       -1.4366982008       -4.0719571077
 H          3.0692094592       -1.8536187319       -4.6329801472
 O         -5.7909332738        3.0250768262       -2.0116909248
 H         -5.1647634625        3.2287538728       -2.7258310219
 H         -5.2775790275        2.4854789832       -1.3711164942
 O         -6.7219083745       -1.6385009409       -2.3581958185
 H         -6.8822862824       -0.6672146653       -2.3265007060
 H         -7.5674754076       -2.0471961083       -2.5447845678
 O          5.1410622691        3.0129160874       -1.9173183197
 H          5.8464381048        2.3469422098       -1.9839492852
 H          5.3878578355        3.6005698838       -1.1885232529
 O         -5.2219382327       -3.2737329333        2.2592679519
 H         -4.2832976323       -3.4438253777        2.1087916343
 H         -5.5975221789       -2.9616079042        1.4228329595
 O         -6.8465798458        3.6240832155        0.5286846699
 H         -6.0933680099        3.9402677867        1.0491598161
 H         -6.6015947029        3.7255934633       -0.4019116506
 O         -3.8469794659        3.1939023092       -3.9881206707
 H         -3.1469310461        3.7133771394       -3.5612114496
 H         -3.4029849440        2.4052935489       -4.3416286358
 O         -1.1659134110       -2.9240823587       -2.0733880992
 H         -0.6837180964       -3.1687232480       -2.8827035436
 H         -2.0109839698       -3.3921318197       -2.0807533174
 O          3.9899720869        2.3992760158       -4.3702047228
 H          4.4460363748        2.8919561541       -3.6737363998
 H          3.1136521864        2.1981010240       -3.9937106799
 O          1.6727775397       -1.1535683570       -5.4492487752
 H          1.0298819182       -0.7640894188       -4.8154212666
 H          1.9041814002       -0.4486704872       -6.0537068765
 O          0.1051132787       -3.4397817753       -4.4800115777
 H          0.7782277997       -2.8410689796       -4.8292763136
 H         -0.7024132648       -3.2018527712       -4.9526584188
 O          3.4653985423       -4.4026219781        1.0125506877
 H          2.8042434669       -3.6761169559        1.0493470644
 H          3.5871968868       -4.6334984151        0.0900697182
 O          1.5985930813        3.4859161816        3.0546195409
 H          2.3252063828        2.8513273865        2.8792669590
 H          1.0645954936        3.0625363028        3.7459130713
 O         -0.0948933200        1.8345008546        4.4358172662
 H         -0.6173199097        1.5925305845        3.6525615732
 H         -0.7656529945        1.8597076311        5.1458936829
 O          6.4124272719       -1.0920990127        1.9420028171
 H          6.3573295445       -2.0361684136        2.1918259696
 H          5.4738519500       -0.8549420385        1.7632827392
 O          7.0679400524        0.9696377807       -2.0929419477
 H          7.0135314659        0.1296225574       -1.5875046314
 H          7.9564574034        1.2980635929       -1.9413453332
 O         -2.1669756977       -1.6274606121       -4.7187240626
 H         -2.8092596880       -1.9792169504       -4.0853000126
 H         -1.3823695536       -1.3507386874       -4.1966605123
 O         -3.7730311782       -0.6037087563        4.9082741648
 H         -3.9547381156       -1.0163154468        5.7519753328
 H         -4.6049447261       -0.6290023234        4.4018985520
 O         -3.2554547438       -4.5542094597       -1.0535011685
 H         -3.5206633422       -5.4533085037       -1.2432021790
 H         -3.0687114992       -4.5007041857       -0.1112589036
 O          0.9020396609       -2.4082341280        3.8033067693
 H          1.2715192739       -1.4964152356        3.8740741964
 H         -0.0553603849       -2.2710011826        3.7892451625
 O          2.6914997081        4.8214942030        0.7694088343
 H          3.6549612924        4.7703137973        0.8483347842
 H          2.3404659079        4.6702427056        1.6561565950
 O          5.3739776746        3.8111873307        0.7331650767
 H          5.2922717432        2.8356267760        0.7317270628
 H          6.2459759913        3.9887179238        1.0873949733
 O         -0.1731979157        2.2891406990       -4.7655409429
 H         -0.9702889833        1.7476537330       -4.9110065776
 H         -0.4797828028        3.1782149467       -4.5789195920
 O         -5.9495999553       -0.9151475467        3.2950260714
 H         -5.6682815602       -1.8107138505        3.0002304503
 H         -6.8674979554       -0.8343624692        2.9924294845
 O         -9.1869084277       -0.9690103164       -0.6088436391
 H         -8.7537038173       -0.2590412867       -1.1060737473
 H        -10.1260048098       -0.7834505530       -0.6310979094
 O          6.1258666555        1.3445609104        3.2412543248
 H          6.3704593422        0.5174175984        2.7916109372
 H          5.6820550617        1.0543541397        4.0481846714
 O         -2.2394565480        3.7958008925        3.4639445953
 H         -1.4783837278        4.3567218126        3.6158334780
 H         -1.9214556864        3.0307329260        2.9528918063
 O         -2.5038205302        1.8653318476        5.5814046711
 H         -2.9861823724        1.0773965474        5.2923170272
 H         -2.7520372307        2.5856079214        4.9867348889
 O          5.7590800611       -3.7053180955        2.1726542553
 H          6.4033269146       -4.0348575637        1.5262703383
 H          4.9027698253       -3.9762249710        1.7691846746
 O          3.8847676271       -2.5744831142        3.9494837299
 H          3.0516595544       -3.0526188913        4.0105207934
 H          4.5489162085       -3.1636204510        3.5630183672
 O          7.7676505678        1.9974897039        0.8055634380
 H          8.4693115192        1.3971674647        0.5081901712
 H          7.6906168567        1.9054143166        1.7600588082
 O          4.3066337111       -0.0417522836        4.8970707245
 H          4.1632143887       -0.0232269778        5.8419642658
 H          4.2965260418       -0.9795284731        4.6329047563
 O          6.8569036183       -4.1628327259       -0.3217819911
 H          7.0912112706       -3.2574374960       -0.5703447595
 H          6.1537423200       -4.4396209485       -0.9173960350
 O          9.3715344831        0.0673477129       -0.3563495382
 H         10.1767969969       -0.3575798452       -0.0618198170
 H          8.7271730417       -0.6342308428       -0.5278502409
 O         -8.5046182735       -0.9770339009        2.0961706501
 H         -8.6615806121       -1.1022106115        1.1409615566
 H         -8.9556000676       -1.6951642799        2.5402462745
 O         -2.5644563139        0.9757700447       -5.1884612912
 H         -2.9405143570        1.0567693441       -6.0633190636
 H         -2.4777931157        0.0024676320       -5.0275696403
 O         -5.8954513198        1.2783439157       -4.5688540566
 H         -6.7757398242        1.3795959742       -4.2019309342
 H         -5.5069565291        2.1593716437       -4.6248142306
