  612
 
 H         -2.3795681896       -0.1944648777       -1.2443463216
 C         -1.3480190510       -0.4063167200       -1.5230843093
 H         -1.3386081992       -1.2526949627       -2.2039643261
 C         -0.5404313289       -0.7363450025       -0.2786779747
 H          0.5148670629       -0.6040571315       -0.5013534383
 H         -0.7058854812       -1.7731178254       -0.0115045744
 O         -0.8078490394        0.6917107810       -2.2409992580
 H         -0.6034365244        1.4229005017       -1.6186093049
 N         -0.9149491260        0.1283568109        0.8578035233
 H         -0.0802568676        0.6420031617        1.2140442887
 H         -1.2941457522       -0.4200255591        1.6539269935
 H         -1.6243774347        0.8409690169        0.5659310584
 O          1.5401837072        6.5223579521        3.3858247942
 H          0.9602874567        5.9752724956        3.9505973156
 H          2.4089282917        6.4459311145        3.8191112438
 O          3.0748899473        3.0780952525       -3.3445744754
 H          3.9895823713        3.3834990801       -3.2376802916
 H          2.9041932716        2.4356845290       -2.6264804394
 O          6.1089365330        3.3829502217        0.4694889715
 H          6.6703840358        3.0238664425       -0.2500552983
 H          6.2454350033        2.7539886554        1.2049579108
 O         -2.0265769919        1.6598953649        3.0504789999
 H         -2.6767522838        2.3056802322        3.3828439489
 H         -2.5660443391        0.8390764464        2.9891385098
 O         -4.6421725349        1.4028142217       -1.5288309065
 H         -5.2447197320        1.0592747090       -0.8480685889
 H         -4.9785387694        2.2764394506       -1.7679486768
 O         -1.6114455966       -4.0780276705       -4.8153991012
 H         -1.0059296281       -3.9466431020       -5.5700687532
 H         -1.6650670901       -5.0327064780       -4.6511050431
 O          1.1847907341        1.6141730050        1.5242569913
 H          2.1106431693        1.4680721888        1.2577757069
 H          1.2623383305        1.9951689353        2.4236422686
 O          4.7568746393        6.3536960011       -0.5195022257
 H          5.0162139473        6.3161354557        0.4186202256
 H          4.3223704445        5.4919570945       -0.6737263911
 O          1.3112049024       -1.5947149923        2.4927395797
 H          1.5324758665       -1.9793947321        1.6183978267
 H          2.0373215073       -1.0142338143        2.7663308613
 O         -0.4483899912       -3.8515361311       -1.0417804251
 H          0.2826302297       -3.6731697887       -0.4181502232
 H         -0.1693962719       -3.4839283481       -1.9063129165
 O          1.2932110425        4.8573457042       -1.2885786329
 H          1.1102249463        5.5012953115       -0.5827674236
 H          2.2047343327        4.5539460679       -1.1595281061
 O          5.7457006422        3.5896034678       -2.9527389152
 H          5.7719812302        4.5465221546       -2.7667507488
 H          6.5105470826        3.4353238717       -3.5309374988
 O         -3.8212611196       -0.2555280966        2.9464280922
 H         -3.8362365909       -1.0966162974        3.4365262211
 H         -3.8577405990       -0.5062608609        1.9966197612
 O          0.0970024040        1.7609147118        7.8018585247
 H         -0.0191552006        1.5515599152        6.8592993380
 H         -0.7954928798        1.8740308062        8.1418501668
 O         -0.4132711085        1.7502707772        5.0990762582
 H         -0.9469153402        1.4732115082        4.3170840922
 H         -0.8933571509        2.5450599065        5.4049791580
 O          5.2771003117       -2.0642009396       -2.1615917179
 H          5.2231106680       -3.0375794543       -2.1137370550
 H          4.3848707211       -1.6943895353       -1.9893939589
 O         -3.0111031659       -5.5734257366        4.3004887057
 H         -2.7107855848       -5.1575269861        5.1199933263
 H         -3.9798202916       -5.6970630997        4.4319438222
 O          0.2962614164       -4.6943709387        1.4712982805
 H          0.1743492111       -5.6557879147        1.5221189499
 H          1.0918595222       -4.5047862261        2.0092292736
 O          1.0541530167       -0.7316746424        5.5712220285
 H          0.7663385230       -1.6242350350        5.3090616720
 H          0.3405276941       -0.1232305711        5.3487965485
 O         -1.1409214195       -1.9918491802        7.4655329256
 H         -1.4355632396       -1.5633866877        8.2688674702
 H         -1.3694243932       -1.3771345121        6.7184679135
 O          4.6060520198        2.9375810115        3.3613010464
 H          5.5248395697        3.2611942906        3.4340602952
 H          4.3863875654        2.5044255563        4.2034420795
 O         -1.1898631742        4.9163417282       -2.5246952726
 H         -1.4971555948        4.6677495205       -1.6363507983
 H         -0.8020161501        5.7952290835       -2.4259149848
 O         -4.7700865689        2.1386620100        1.6014795020
 H         -3.8893205043        1.9936840010        1.1992931480
 H         -5.3411432248        1.4202358282        1.2583482218
 O         -2.8213267076       -3.5225084503        0.2025932924
 H         -2.0844362235       -3.6217847747       -0.4280481412
 H         -2.4050373343       -3.6379356965        1.0929847307
 O          2.8507719413       -0.9932377711       -1.7347813724
 H          2.3526053638       -0.7795995291       -2.5511803948
 H          2.9000602978       -0.1345192272       -1.2837966109
 O          7.8456294278        2.4200039384       -1.2421065539
 H          7.6019722051        1.7855319067       -1.9567960625
 H          8.2715418744        3.1880552278       -1.6558522904
 O         -2.6408129361        2.0298202186        0.0757689078
 H         -3.2602397111        1.8334026100       -0.6609289622
 H         -2.2959697933        2.9302121567       -0.0539209515
 O          2.3434665658        1.6102999005       -1.2263133321
 H          1.4079441929        1.8701184903       -1.1333006451
 H          2.8599265506        2.2833555986       -0.7516014830
 O          1.2580193398       -3.2014917909        8.2557517843
 H          0.3801253991       -2.9880827015        7.9062975922
 H          1.6231931581       -2.3462208636        8.5204433017
 O         -1.8240849263       -3.8132530120        2.5882693464
 H         -2.1796659563       -4.5045129265        3.1748280470
 H         -0.9517514017       -4.1624632908        2.2480878545
 O          0.7567450943        0.0365227777       -7.4758669282
 H         -0.0105958890       -0.5278561153       -7.7126364907
 H          0.3906159097        0.6899275083       -6.8556513303
 O          2.4303154193        7.6563804533       -1.2273466534
 H          1.9754139911        7.4515949568       -0.3940287319
 H          3.3350858808        7.3292427930       -1.0955203599
 O          0.8342612316        4.0529136908       -6.0202324212
 H         -0.1320759785        4.0546320666       -6.0307621307
 H          1.0693361616        4.6138383843       -5.2596851200
 O          4.1174264792       -4.1587450219       -4.7286901558
 H          4.1993402155       -3.2826897301       -5.1317548171
 H          4.9569552014       -4.6048178361       -4.8703984961
 O         -3.3209979238       -5.4673298543       -2.0245360602
 H         -4.0781628217       -5.8519567938       -1.5442538199
 H         -2.5170516357       -5.7674812649       -1.5583262639
 O        -10.5125015109       -1.8963657306        3.1159844713
 H        -10.9516126899       -1.1026117102        2.7700316958
 H        -10.0392105609       -2.2510462463        2.3478077820
 O         -8.5566921040       -2.3812894236        1.2065871140
 H         -8.1058644048       -3.2266380406        1.2562791442
 H         -8.3159057129       -2.0181061489        0.3242959788
 O         -1.2316662354       -1.2960414157        3.1258309164
 H         -0.2595213285       -1.3654690923        3.0252497818
 H         -1.5537872483       -2.2164311489        3.0165429643
 O          0.2562019344        2.8407740157       -3.4581203660
 H          1.1743203912        3.1309436458       -3.4604686235
 H         -0.2785659524        3.5927205676       -3.1419802739
 O         -1.8571161203        7.0052143199       -4.3626765723
 H         -2.7218684258        7.0808338316       -3.9491784323
 H         -1.2303037500        7.3725775287       -3.7251153687
 O         -6.1116545157       -1.7730787109        2.3038259251
 H         -5.6670370381       -2.6076986733        2.1032163784
 H         -6.7413639772       -1.9655877731        3.0133099885
 O          6.5452982724        3.2607138641        6.4381581693
 H          6.7885831560        2.3133221868        6.4688554892
 H          6.8957861213        3.6654802969        7.2305158907
 O         -5.8526234040       -4.9200734326       -3.1118025117
 H         -6.7671683436       -4.6301794728       -3.2901193185
 H         -5.9059983770       -5.7810769856       -2.6882816458
 O          2.6354891902        4.3827898865        2.0458313839
 H          2.1529086209        5.1586918387        2.3663837700
 H          2.4989006596        3.6841985586        2.7043936413
 O          4.9965997963        1.5209646852       -1.4088134481
 H          5.3560637781        2.3172514883       -1.8395370008
 H          4.6073558488        1.0094999298       -2.1330770399
 O         -0.1924308849       -5.7184539188        4.1355041715
 H          0.6295876753       -6.2447207513        3.9935538755
 H         -0.6742382480       -6.1667437719        4.8286057344
 O         -5.5751579895       -5.7249464330        4.8908682569
 H         -6.2930147738       -5.5529864436        4.2489014871
 H         -5.6509595121       -4.9984629667        5.5293993572
 O          2.8756489125       -4.0186302825       -2.2025210900
 H          3.4288226671       -4.0223380890       -1.3954095009
 H          3.4576960275       -4.1440481732       -2.9647687237
 O          4.1828454558        4.4603488471       -5.7887206123
 H          4.0905242209        4.8635267797       -4.8990689525
 H          3.2963550983        4.4091846654       -6.1547348854
 O          3.6287869774        3.8865115163       -0.3227722513
 H          3.2153691551        4.0439735273        0.5536877643
 H          4.5608009527        3.6597534639       -0.1092032453
 O          1.6423844592       -1.7350673446       -5.7707604888
 H          1.4314748306       -1.3112446546       -4.9126426067
 H          1.3906186203       -1.0584945601       -6.4558812767
 O         -3.5724378708       -0.1817481565       -4.3887062489
 H         -2.6894123639       -0.5806781138       -4.3171822231
 H         -4.0479809706       -0.7593631212       -5.0136848813
 O          0.1872779520       -3.7308474472       -6.8044676130
 H         -0.3983959852       -3.2697923012       -7.4211154211
 H          0.7527569966       -3.0157564854       -6.4384604425
 O          3.5477255747        5.2743067029        4.7366438107
 H          3.8416095457        4.4876119168        4.2512113636
 H          3.0990781980        4.9528272044        5.5223024454
 O         -0.6414206511        1.3010613107       -5.4674711125
 H         -0.3337506699        1.9017463602       -4.7532754199
 H         -1.5447777025        1.5501551496       -5.6838982767
 O          3.8247486227        1.5050485229        1.2555019055
 H          4.3948314943        1.6520999728        0.4902735555
 H          4.1580030334        2.0321909801        2.0104735474
 O         -2.1277515373        3.7196344235        5.8319049278
 H         -2.8573216344        3.6743716763        5.1988776850
 H         -2.3854087078        3.1189108515        6.5619883079
 O          3.9992219600        2.2803586862        5.8980086404
 H          4.0061835828        1.4096789276        6.3602410877
 H          4.7856931309        2.7562128485        6.2029110867
 O          1.3643000293       -0.0606839003       -3.7283368512
 H          1.6595162945        0.6610932107       -4.3182032842
 H          0.6069699448        0.2881708940       -3.2230695201
 O         -5.0993649705       -1.7604425471       -6.0007527281
 H         -4.7604147060       -2.6821735341       -5.9677657549
 H         -5.7974492784       -1.7511671437       -5.3066441361
 O         -1.1335488759       -1.2383313323       -4.7306045544
 H         -0.4902230268       -1.7433996559       -4.2132420624
 H         -0.7695085584       -0.3440880309       -4.8944081836
 O         -3.0579822171       -8.2292322897       -0.3410128263
 H         -2.9559344936       -8.2884450912        0.6153495177
 H         -2.2966021824       -7.7218113591       -0.6500212774
 O          9.9852763587       -4.6638854625        1.0172592637
 H          9.1553414046       -4.9446454844        0.5968496940
 H         10.3789182474       -4.0096604295        0.4195081773
 O          2.8197176834       -6.7663549193        1.2120694134
 H          3.7408030367       -7.0197132327        1.1089693478
 H          2.4790767681       -6.5711557716        0.3217250847
 O         -6.1569224976        0.8688547490        3.5792071411
 H         -5.3172998348        0.4058992097        3.3633584227
 H         -6.4094260307        0.6500023753        4.4860371405
 O          6.9963485536        4.0348503729        3.8090650721
 H          6.8720272627        3.9933918865        4.7694078578
 H          7.7599096742        3.4660007646        3.6263297718
 O          8.1426514708        3.9070874032       -4.2722884533
 H          7.7099357544        4.6201358801       -4.7992279257
 H          8.5499568761        4.3532515370       -3.5191482251
 O          8.9817571022        4.8750178961       -1.7334860964
 H          9.8708496704        4.5088333446       -1.7229536905
 H          8.7316040377        5.0765600855       -0.8029391832
 O         -3.6628951018       -0.9813701115        0.4075571494
 H         -3.3224629524       -1.8902090698        0.3273782593
 H         -4.4420260262       -0.9424013941       -0.1601172388
 O          5.3905186684        2.0598820099       -5.8890269816
 H          4.9455006117        1.6296951469       -6.6315730551
 H          5.0188370461        2.9656239075       -5.8409645706
 O         -2.0260048369       -0.4648526540        5.5400814777
 H         -1.7934714082       -0.7675056153        4.6347061419
 H         -2.9767600550       -0.6604175451        5.6648688979
 O         -8.8882061712        0.7860090930        0.2047640513
 H         -9.1334801195        1.7217164776        0.1611497976
 H         -8.8857926824        0.5588924215        1.1661613359
 O         -8.3189605683        2.5789766112       -5.0347815231
 H         -8.4438125610        1.6110897419       -4.9490053791
 H         -9.0909848863        2.9158996611       -5.4864731310
 O          7.6637283536       -4.8569003219       -0.4417040360
 H          8.2246096863       -4.5295038895       -1.1802326543
 H          7.2672711196       -4.0609297242       -0.0126703331
 O          6.3462300949       -2.8505843675        0.6323342395
 H          6.6388978631       -2.6686285865        1.5519806054
 H          6.3612078948       -1.9761086208        0.2061187114
 O         -5.2610573301        1.9893462005        6.1003878713
 H         -4.8091262918        2.3714931458        5.3269777877
 H         -6.1660466509        2.3295057222        6.0148305660
 O         -0.4864265840        3.8544739652        2.3716492599
 H         -0.0261967506        3.9847332713        3.2191971876
 H         -1.0037810832        3.0394162613        2.4609553352
 O         -6.9311409141        5.0934169694        3.1996545967
 H         -7.4119685771        5.5168293059        2.4583371346
 H         -6.0330877581        5.4485174207        3.1863406652
 O         -1.8164547990        4.6322099444        0.0788416191
 H         -1.1689525525        4.5717338442        0.7914678830
 H         -2.3360326728        5.4397617456        0.1953595803
 O         -1.2538048058        8.3368760677        0.1131672060
 H         -2.0920648282        7.8333066041        0.0846138914
 H         -1.4334941222        9.1668674908        0.5520135166
 O          2.5005968697       -4.4338227595        2.8623266368
 H          3.1291007516       -3.6888549160        2.9481940057
 H          2.9250001167       -5.1149806631        2.3301009444
 O          7.3437802567       -1.8460504465        2.8422377607
 H          7.9951363345       -2.4741859762        3.2095263218
 H          7.8666859299       -1.3338340623        2.1979093979
 O         -1.3449173872       -1.6051915093       -7.4371844504
 H         -1.3737236436       -1.5795563604       -6.4602951082
 H         -2.1381190370       -1.1087589796       -7.7243757555
 O         -8.4923996760       -0.0406670087        2.6263906809
 H         -8.4122062449       -0.9363318490        2.2629630209
 H         -7.6071340468        0.2263529135        2.9334526990
 O          4.6279278522        0.4637731904       -3.8652876895
 H          4.3559036138       -0.3116958362       -4.3820750320
 H          4.8218682459        1.1546126114       -4.5304408184
 O         -3.4309050257        2.1874253286       -6.2289325496
 H         -2.9195413559        3.0006472841       -6.2989687051
 H         -4.3652055178        2.4592630834       -6.2288385993
 O          7.1132488948       -2.0467778066        5.8869635562
 H          6.1384578886       -2.0631436123        5.8484936046
 H          7.3739483581       -2.9631977856        5.6647541067
 O          4.3933369858       -2.0720987149        5.6248224444
 H          4.3793413664       -2.1177025212        4.6453151195
 H          3.7834137675       -2.7872338395        5.9082982315
 O          0.1425850647       -6.9876784269       -3.4345947951
 H         -0.6958773454       -7.1358107802       -3.8921014063
 H          0.6167315042       -6.3068863496       -3.9502794994
 O          6.6656760809        5.8229958404       -5.3136125928
 H          6.4452249513        6.1531266504       -4.4296845694
 H          5.8544106197        5.4531487761       -5.6838360699
 O          5.6371182988       -4.7438261149       -2.2481934517
 H          6.1578782529       -4.7228822710       -3.0829470901
 H          6.2989549740       -4.8830039468       -1.5450213395
 O          5.7349403444        0.0204597784        4.0816194251
 H          6.2151728454       -0.7758794813        3.7877613011
 H          6.1121892253        0.2676917958        4.9447817201
 O          1.7751438570       -2.7239950403        0.1246439640
 H          2.4748464529       -3.3522776556        0.3512143754
 H          2.1937611891       -2.1015512351       -0.4975401279
 O          3.0254058426        0.0869316465        3.8378357508
 H          3.9876241471       -0.0039039476        3.9579270485
 H          2.5803947981       -0.2933037921        4.6116371814
 O          8.8803107743       -1.1367232638        0.7172393012
 H          8.3415617868       -1.2812864979       -0.0911466947
 H          9.1961698299       -0.2145533868        0.6183435561
 O         -5.8249771035       -3.1557254894        5.9262454626
 H         -6.7004910767       -3.0654483817        5.5336471834
 H         -5.1874973199       -2.9348448091        5.2078293200
 O         -2.7589581566       -3.8225800993        6.3550156303
 H         -3.5934753402       -3.7065858415        6.8152271173
 H         -2.0987366901       -3.2598094496        6.8051227856
 O         -8.8529716624        3.7439494696       -2.4446215636
 H         -8.0492170440        3.7748180736       -2.9941968009
 H         -9.3710798885        3.0131096762       -2.8033396296
 O         -2.9209432982       -2.8608333789       -2.7367280309
 H         -3.1255728753       -3.7665021480       -2.4546985182
 H         -2.3843484076       -2.9654486489       -3.5331660217
 O          0.1794684577        4.7455661050        4.8399529490
 H         -0.6757102094        4.6718124587        5.2850567085
 H          0.8419596041        4.3776464041        5.4681270270
 O         -8.2090144781        5.7111697516        0.9214973460
 H         -7.7090080689        5.8439557884        0.1016054885
 H         -8.8060500181        4.9677037981        0.7516781998
 O         -4.9654267193       -1.2240772943       -2.1535861365
 H         -4.6956229775       -0.3002022226       -2.2565634707
 H         -4.2023218112       -1.7725206363       -2.4237702504
 O         -6.8688806865        2.8099201363       -0.5746098278
 H         -7.1060543934        2.7700565512        0.3716718647
 H         -7.5248078874        3.3645935391       -1.0087362610
 O         -2.7223571193        1.6105618362        7.3316734578
 H         -2.4459561544        0.9211798076        6.7039090228
 H         -3.6840217813        1.6554504611        7.2443759900
 O          7.6330985539       -4.5038147461        4.9169924482
 H          6.9876317440       -4.6472914576        4.2040878823
 H          8.4725182731       -4.3204497454        4.4755474355
 O          3.9001999576       -1.0954044830        0.9341668447
 H          3.6671266250       -0.2115283919        1.2665852016
 H          4.7442986666       -0.9405169010        0.4744115463
 O         -7.5019718484       -4.9696769909        3.2072562588
 H         -7.7647182311       -4.0932602876        3.5123478423
 H         -7.4209595371       -4.9397116146        2.2416220386
 O          0.8054490009        6.6319520648        0.7385294594
 H          1.0629021222        6.6879991936        1.6720440590
 H          0.0143400549        7.1837881666        0.6326812714
 O         -4.2802357309       -4.2132233043       -5.3926478303
 H         -3.3350453044       -4.0845909475       -5.1856129752
 H         -4.7305542062       -4.4183318311       -4.5605963962
 O        -11.7424058647        1.7721475430       -0.5641196555
 H        -12.6142873875        1.7816491466       -0.9553503124
 H        -11.1098452438        1.5061143114       -1.2822626498
 O         -7.4979562116       -0.1218795955        5.7800910482
 H         -8.4093375189        0.1766259583        5.5118076780
 H         -7.4477525856        0.0044202116        6.7267733797
 O         -7.9912966023       -2.3531038024        4.2960931280
 H         -7.8100856191       -1.5595286665        4.8361596495
 H         -8.9170352411       -2.2586960206        4.0122827429
 O         -5.4622586943       -3.5225400911       -0.8320293340
 H         -4.5245309550       -3.4847241637       -0.6004509284
 H         -5.5030916040       -3.9342222627       -1.7162153087
 O         -6.7946524618       -1.6862967173       -3.9810461757
 H         -7.2947098444       -2.4764050096       -3.7164150475
 H         -6.1495999073       -1.4938728492       -3.2518880560
 O         10.4073587621        2.6061410954       -2.7397863577
 H         10.0926778720        2.7341525509       -3.6370144658
 H         10.6484387339        1.6749488500       -2.6694192183
 O         -0.9877847309       -6.3967642307       -1.0823625774
 H         -0.5782523760       -6.6804328304       -1.9240245570
 H         -0.6953031730       -5.4542424912       -0.9586512925
 O         -4.7857385869       -4.1172809831        2.0824233036
 H         -4.1829936894       -4.0314516558        1.3360050667
 H         -4.9872672149       -5.0684081705        2.1646487288
 O         11.2178210610        1.4657324922        2.1257450587
 H         10.7290134246        1.4147038968        1.2687024330
 H         11.9591852410        2.0535701755        1.9838571223
 O         -5.3012341477       -6.7960401324       -0.7436721598
 H         -5.3604403286       -6.6511117158        0.2153092060
 H         -4.6671563863       -7.5363293388       -0.7980490454
 O         -6.6495632589        0.4509668666       -6.8006419117
 H         -6.1410618042       -0.3661862190       -6.8778305900
 H         -7.5361361840        0.1946874123       -6.5146524463
 O         -0.0870203795        7.5281962768       -2.2746227276
 H          0.8591350526        7.6227186250       -2.0591198570
 H         -0.5468326336        7.9222813848       -1.5188722769
 O          4.0877690914       -4.1979058967        0.2047137145
 H          4.8051156409       -3.5578884095        0.3723012037
 H          4.5038756548       -5.0658823296        0.3349606536
 O         -0.0205460163        2.6536232893       -0.5814573498
 H          0.2860223719        2.5592899207        0.3375679203
 H          0.2811959387        3.5239280239       -0.9027030358
 O          3.5984835653        0.5964185673       -7.3754066882
 H          2.9729192203        0.3648240663       -8.0651240772
 H          3.0403717089        1.0296954104       -6.6830691131
 O         -4.6195276585        5.0563976347       -5.0893164132
 H         -5.1106233624        4.6657962112       -5.8225194444
 H         -3.6780725518        4.8232919081       -5.2251621064
 O         -9.8288787473        2.4721740732        3.1318352290
 H        -10.2664837351        3.3019289489        2.9426558390
 H         -8.9633299789        2.4972124997        2.6460039018
 O          9.8272519445        1.1816961699       -0.0738198516
 H          9.0695568927        1.7205856445       -0.4092380177
 H         10.1956865963        0.7580283638       -0.8719544927
 O         -4.2018618064        5.6048069576        2.8171524523
 H         -4.3530572392        5.2534012044        1.9109801609
 H         -3.3080587504        5.9911452172        2.8070796676
 O         10.8791853000       -2.4144280543       -0.4201000847
 H         10.1456098631       -1.9648569879        0.0838085263
 H         11.6874398812       -2.2226142832        0.0549971661
 O          1.9863495760       -7.2049698116        3.8407555657
 H          2.2105595303       -7.1388489380        2.9030598242
 H          2.7210138939       -6.7770664225        4.3077471156
 O         11.2088493388       -1.0556823280        3.2363438981
 H         11.1935123062       -0.1811638368        2.8042301200
 H         11.9440795927       -1.0460335484        3.8496185126
 O         -2.4751527013       -6.6074848260       -4.2905659418
 H         -3.1708526594       -6.6839788647       -4.9447271922
 H         -2.8931464162       -6.2368239483       -3.4782063018
 O          7.2296853995        0.6800496732       -3.0990009677
 H          6.2827190038        0.5176934959       -3.2804524192
 H          7.6203335516        0.9354266877       -3.9607869359
 O         -4.5378534999       -0.6476698639        6.3463933326
 H         -5.1993240360       -1.3489637553        6.3286401407
 H         -4.9843085833        0.2056951347        6.2176269183
 O          9.0813826745       -3.7671867333       -2.4294222398
 H          8.6753027114       -2.8767173419       -2.2918063922
 H         10.0035049451       -3.6654120773       -2.1878539498
 O          7.1262221309       -4.4562454065       -4.4043600385
 H          7.9997757663       -4.5289510121       -4.0021934912
 H          7.0067720400       -3.4923056580       -4.5607170963
 O          4.1303329337        0.0080789622        7.2070957829
 H          4.1898744324       -0.7689569547        6.6044921676
 H          3.3192867656       -0.1371740805        7.7355650528
 O          9.5235820002       -3.3430349447        3.2835827911
 H         10.1960935817       -2.6524282803        3.2529945199
 H          9.6910644534       -3.9087881480        2.4970449732
 O         -2.5271983674       -7.4783792474        2.4237022660
 H         -1.6140230189       -7.4857652459        2.0942713993
 H         -2.5127506606       -6.8819860418        3.1912662937
 O         -9.9398609661        0.3910058469        5.0091088186
 H        -10.2090966501       -0.3929683319        4.5128181646
 H         -9.9387868978        1.1117160046        4.3612576718
 O         -6.2147065497        0.2086258059        0.4709908960
 H         -6.1910115024       -0.5264392663        1.1128036989
 H         -7.1534708977        0.4189385706        0.3133405267
 O        -10.0063693844       -1.5050181459       -3.0070329878
 H        -10.6276667083       -1.6731474930       -2.2881495599
 H         -9.1394638943       -1.6305587397       -2.5849288119
 O          3.9796470485        5.8264372511       -3.4847070874
 H          4.2607043782        6.7222602057       -3.3026816400
 H          3.0051359042        5.8327312553       -3.5505270026
 O          1.4370622659       -5.0244562747       -4.7728087789
 H          1.0832973157       -4.8358249215       -5.6526128685
 H          2.3862904481       -4.8288635532       -4.8037999850
 O        -10.0881029839        1.1853453104       -2.5556217994
 H        -10.3241524865        0.2875504124       -2.8387270560
 H         -9.1349944017        1.0798720422       -2.3152914557
 O         -7.6019284414        3.1288959340        5.1797764537
 H         -8.4106561833        2.7782837152        4.7945428205
 H         -7.3645957908        3.9044695989        4.6536658173
 O         -5.0833069097       -6.7641974251        1.9997524185
 H         -5.5731399901       -7.0904534617        2.7569093378
 H         -4.1591629959       -7.0739682257        2.1085480952
 O          8.8876514149        2.0189087264        3.5254158307
 H          9.7535353796        1.9662139916        3.0965587477
 H          8.8415886389        1.2363237032        4.1162590230
 O         -1.9610491145        4.3978053120       -5.2706624568
 H         -1.7622246097        5.2900099811       -4.9291294037
 H         -1.9871541792        3.8046109734       -4.4942212497
 O        -11.3763344486        0.4525483693        1.8808152125
 H        -11.5777015198        0.8826257144        1.0353177108
 H        -10.8204703887        1.0868535429        2.3610950562
 O         -7.4990888190        0.7736510653       -2.1862931809
 H         -6.9392937485        0.8598267071       -2.9806252653
 H         -7.2228561893        1.4811571420       -1.5671072248
 O         -1.6043958339        6.3314486003        2.6168569666
 H         -1.0837801879        6.8405518353        3.2372428786
 H         -1.1872981959        5.4478231736        2.5659021084
 O          5.5957586950       -6.4824598293        0.5643343888
 H          5.2871598360       -6.9224789217       -0.2706992852
 H          6.4840126284       -6.1665030115        0.3532423447
 O          1.3456245407        5.6593346491       -3.8499641462
 H          1.2116237755        5.3274907821       -2.9327855757
 H          0.8106821826        6.4500327454       -3.9360259150
 O         -0.0659277894       -7.3923268071        1.2185979195
 H         -0.3009723144       -7.1556312919        0.2982191329
 H          0.8143276630       -7.7717629051        1.2174419179
 O        -10.6256437655       -1.2816362206       -0.3846203767
 H        -11.2026434500       -1.1839508141        0.3758952394
 H         -9.9654950661       -0.5637471530       -0.2869449605
 O          2.6109725809       -3.9513477760        6.0922809826
 H          1.8982109756       -3.7193947033        5.4500024970
 H          2.1948773196       -3.8326742939        6.9725546727
 O          4.1272363881       -5.8244932553        4.9742368957
 H          4.7134308595       -6.1170052132        5.6723779323
 H          3.5528508854       -5.1243891222        5.3647414375
 O          0.6519214812       -2.8695694835       -3.2523273214
 H          0.7185401461       -3.6273568112       -3.8601022276
 H          1.5041936563       -2.8711396434       -2.7891727862
 O          9.2047350946       -0.8959458033       -4.5103355952
 H          8.3278404261       -1.3123829588       -4.4747811954
 H          9.0980050585       -0.1392027294       -5.0971442634
 O         -6.4369577421        5.6405448688       -1.2902294685
 H         -6.5507369910        4.9492876002       -1.9613728537
 H         -5.9094900325        5.1972256417       -0.5886717626
 O         -6.2419632461        3.7167029469       -3.3083061007
 H         -5.6894545765        4.2376413816       -3.9113579973
 H         -6.1586286018        2.8006279153       -3.6295255935
 O          6.7709682638        1.3695890881        2.0665361050
 H          6.2505386326        0.9582106796        2.7908325222
 H          7.6244308219        1.6122101380        2.4751112529
 O          8.9367656251       -0.3125872398        4.8043289075
 H          8.2996218949       -0.9893336728        5.0992534435
 H          9.6363984722       -0.7742014980        4.3267621730
 O         -7.3561688745       -4.8194916994        0.4368433461
 H         -6.6076479192       -4.3104094983        0.0283122640
 H         -7.2708638247       -5.7158015626        0.1080367444
 O          1.8293376015        3.6854758804        6.6409981442
 H          2.5597102385        3.1120080440        6.3257632514
 H          1.2988412583        3.1402173220        7.2378514737
 O         -6.0413838864        3.1301472618       -6.5019198572
 H         -6.2009242101        2.4338424537       -7.1481616731
 H         -6.7861766885        3.0451771262       -5.8738677500
 O         -7.4306183721        2.7216434402        2.0744144041
 H         -7.1968366359        3.5967859704        2.4441025708
 H         -6.9048598492        2.0772444705        2.5849226787
 O         -9.6048597194       -3.9042171054       -1.0711484297
 H         -8.9394387593       -4.2184444008       -0.4413833729
 H         -9.9151192289       -3.0452037815       -0.7389661595
 O          5.6873971319       -4.8964027598        2.9703006416
 H          5.7190622882       -5.5417005632        2.2559233971
 H          5.0742595421       -5.2529106966        3.6464536019
 O          6.5372342252        6.1646811820       -2.5115287276
 H          7.4257815291        5.9803300100       -2.1920938714
 H          5.9778229525        6.3565515110       -1.7318067880
 O          4.5844171973       -7.2007634723       -1.7402624420
 H          4.9125832109       -6.3787089428       -2.1481882892
 H          3.6207599663       -7.0781477505       -1.6559621420
 O         -9.7308792604        3.4876069328        0.1076747749
 H        -10.6253762237        3.1211484655        0.0666714024
 H         -9.5057852364        3.7069271947       -0.8142557849
 O          8.0358187712        1.5227715142       -5.4927758524
 H          7.1287406872        1.6209815917       -5.8341113099
 H          8.2699715159        2.4201328407       -5.2041892166
 O          1.6898945289       -0.4498493223        8.1557557276
 H          1.2028960570        0.3606453650        8.3629795422
 H          1.4400162661       -0.6460139208        7.2252420859
 O          6.2845338302       -0.2502275403        0.0242265655
 H          5.9297343297        0.3806756965       -0.6327330352
 H          6.5571744539        0.2977520728        0.7863204742
 O          4.3483931415       -2.5367818922        3.0380144337
 H          5.0405595083       -3.1965971005        2.8820354101
 H          4.2192091738       -1.9947320655        2.2185646452
 O         -5.8593165474        1.1993921121       -4.2620127183
 H         -6.1510080150        1.0178403590       -5.1735768174
 H         -4.9959598543        0.7686869391       -4.1653529469
 O          7.9571923522        5.3224874761        0.6856941328
 H          7.2179991128        4.6749013516        0.7181229934
 H          7.6182356577        6.1215184282        1.0888073198
 O         -4.4368655183        6.5891040073       -2.8219109954
 H         -4.5992199057        6.2405959908       -3.7124436072
 H         -5.2751228542        6.4340539811       -2.3328018137
 O         -4.0805954501        3.1959135049        3.9122864617
 H         -4.5365869113        2.6823279441        3.2064836270
 H         -4.1703191685        4.1311241878        3.6196830879
 O         -4.8017323936        4.5082543038        0.4908256624
 H         -5.0133650533        3.6263962952        0.8761172980
 H         -4.2439297116        4.2997832418       -0.2864164264
 O          2.2461601151        1.8210280459       -5.4626984127
 H          2.7299674400        2.2834636336       -4.7381744222
 H          1.6294382862        2.4972072439       -5.8044843422
 O          1.8414252028        2.4703869460        3.8976824580
 H          2.4139142299        1.6768128271        3.9406010530
 H          1.0738408529        2.2740629972        4.4672568982
 O         -3.4420972267        6.8676312643       -0.2566481022
 H         -3.6539098381        6.8333755333       -1.2035556934
 H         -4.2696440313        6.7328726093        0.2120779745
 O         -3.5519783347       -0.1517191863       -7.7291045957
 H         -4.1293441930       -0.7334983863       -7.2185250095
 H         -3.4825750465        0.6776546125       -7.2294853515
 O         10.5698522412       -0.2379517861       -2.2680421551
 H         10.0764673140       -0.4890088749       -3.0780615458
 H         10.7656475546       -1.0716484179       -1.8171777658
 O          4.2050823294       -1.4769137009       -5.7689739878
 H          4.2447494908       -0.8092701947       -6.4801887987
 H          3.2296449816       -1.6671615547       -5.7296784354
 O         -2.5660760113        2.3223924484       -3.5448470159
 H         -3.1016271033        1.6987844695       -4.0542054921
 H         -1.8881759483        1.7816838574       -3.1022594110
 O         -3.7555417919        4.0151356759       -1.8785268610
 H         -3.8003139108        4.8634841015       -2.3337805887
 H         -3.2918011193        3.4022354566       -2.4810711432
 O          5.2138428817        5.6841312730        2.0612740209
 H          5.8579256230        5.2999429331        2.6651951997
 H          4.3977771204        5.1741567084        2.1836145114
 O          7.8668138283       -1.5365582130       -1.7451915200
 H          7.9039358082       -0.7026076523       -2.2520418873
 H          6.9158227294       -1.7515459720       -1.7435868464
 O         -7.6895657810       -1.7208935831       -1.2321745570
 H         -7.5707069354       -0.7798995461       -1.4749612557
 H         -6.7997078766       -2.0971327433       -1.1772634507
 O         -8.6659266376       -0.1189965641       -5.0400849508
 H         -9.4562982363       -0.5038859417       -4.6490790879
 H         -7.9293439492       -0.5946546370       -4.5940051298
 O         -8.3146898469       -3.8861039362       -3.3571939025
 H         -8.7887786929       -3.8532218965       -2.4810341102
 H         -9.0000944255       -3.9609354098       -4.0204089090
 O          2.0112467357       -6.4108721927       -1.3979501692
 H          1.4469086959       -6.8289809986       -2.0564984063
 H          2.1826895538       -5.4947750756       -1.7170916608
 O         -3.8993942572       -2.6506604897        4.1622217889
 H         -3.2488514768       -3.0714299336        4.7474842770
 H         -4.0980227381       -3.2693289283        3.4314551222
 O          6.5800253328       -1.8582386083       -4.4964333038
 H          5.9121117393       -1.6671036511       -5.1675028660
 H          6.0970367154       -1.8302351024       -3.6396570126
 O          6.6790373933        0.5942681291        6.6207519935
 H          5.8388830961        0.3756405236        7.0620254180
 H          7.2129452227       -0.2092610497        6.6508682878
 O          0.5808796396       -3.1976120712        4.5608327691
 H          0.2184285994       -4.0941409446        4.3955652984
 H          0.9711745793       -2.9035104275        3.7179281848
