  116

 H          0.4630927076        1.1941025327        0.8323452958
 C          0.5529035761        0.5095402431       -0.0251092077
 H          0.4633421182        1.0989800595       -0.9466436097
 C         -0.5779259332       -0.5149488604        0.0205351875
 H         -0.4518492549       -1.1270258237        0.9278134322
 H         -0.4840892691       -1.1748678656       -0.8448928486
 N         -1.8603253887        0.1647702475       -0.0623309410
 H         -2.6131021661       -0.5138473281       -0.0751527666
 H         -1.9956541839        0.7570092262        0.7508171931
 O          1.7808081027       -0.1833448060        0.0209869107
 H          2.5006908393        0.4507195084       -0.0567171281
 O         -1.8398351650        1.1566139080       -2.4960837625
 H         -1.7885420983        0.8354604707       -1.5381458629
 H         -1.6294279999        0.3643474770       -3.0184262357
 O          2.1046906385        1.8502449621       -2.9919605485
 H          1.3474591250        2.4369351412       -2.8155926519
 H          1.7321147236        0.9641549402       -3.1678417398
 O          3.3895768855        1.7922488815       -0.7056476636
 H          2.9829511457        2.5781283870       -0.2920946033
 H          3.0146356780        1.8063870484       -1.6253581961
 O         -0.3586896594       -3.6841737709       -2.4118799398
 H          0.4539940930       -3.3136397701       -2.0085870613
 H         -0.0817519175       -4.4366066137       -2.9342271698
 O         -1.5229977368       -1.4086750882       -3.4253836687
 H         -1.1429615686       -2.2551264181       -3.1328579918
 H         -2.4691010896       -1.4935104839       -3.1969210759
 O          1.8143166736       -2.4723281291       -1.4122259306
 H          1.7525474247       -1.6753828957       -0.8536519646
 H          2.7856516789       -2.7230138781       -1.3694762596
 O          5.1216437526        1.6514097671        1.4348463565
 H          4.7585615910        2.4576730439        1.8689819383
 H          4.6776374295        1.6344341884        0.5735282692
 O         -0.1203894074        3.2240726627       -2.1715901303
 H         -0.3849404363        3.4577443131       -1.2736646707
 H         -0.7822549861        2.5721872193       -2.4689113628
 O         -4.3744336647        1.2767992765       -2.0028580713
 H         -3.4501409116        1.3034370593       -2.3742372186
 H         -4.9931652761        1.5476369586       -2.6827141648
 O         -4.0010537584       -1.4951801495       -2.2858039010
 H         -4.2632200234       -0.5684559903       -2.1694606898
 H         -3.7521125974       -1.8150569314       -1.3938579958
 O         -3.4294727730       -2.2132008215        0.2855272411
 H         -2.9372530216       -3.0645659077        0.1622569865
 H         -4.3834981717       -2.4012105794        0.4807915860
 O         -1.8254906017       -4.2396519572       -0.0836774803
 H         -1.0229848522       -4.1385726565        0.4606672345
 H         -1.5041349932       -4.1468240095       -0.9929796701
 O         -2.6992909161       -1.6745370102        2.8031438704
 H         -2.9682303147       -2.4510662266        3.2944732556
 H         -2.8959460937       -1.8684780170        1.8532366040
 O         -1.6384405611        1.9206888661        2.3730248884
 H         -1.1081997826        1.2468256583        2.8399717715
 H         -2.5686753747        1.6753270936        2.5481709796
 O         -0.7688695321        3.6637106947        0.6103931980
 H         -1.0030736442        4.5140623432        0.9878599377
 H         -1.0210448350        2.9931692419        1.2919825964
 O          0.6550451580       -3.7143208029        0.9284010107
 H          1.1692688774       -3.5060402488        0.1365261737
 H          0.9967241194       -3.1344765253        1.6233699772
 O          1.6829632682       -1.5618406041        2.3879109020
 H          2.5306082711       -1.4541032046        2.8306301104
 H          1.7632366695       -1.0641168397        1.5498278392
 O         -0.4087370406       -0.2110916316        3.5325727294
 H          0.3232587631       -0.7574669615        3.1867860703
 H         -1.2033013505       -0.7553141906        3.4219800739
 O          4.0455098071       -0.1492121848        3.0147462547
 H          4.5577254176       -0.1296095864        3.8241098022
 H          4.4961349016        0.4908090065        2.3957092855
 O          1.9394061281        3.9752220473        0.0443567011
 H          1.8238534131        4.3696860782       -0.8237811587
 H          1.0434371364        3.7627115298        0.3628285603
 O          3.5619046004        3.6072577700        2.3651325646
 H          2.8722811691        3.0022458515        2.6899523618
 H          3.1670870886        4.0422215661        1.6007799021
 O          1.8116124332        1.5624919167        2.8715873717
 H          2.5045049828        0.8910523234        2.9780074967
 H          1.0598336753        1.2584424890        3.3887460543
 O         -4.0313703807        0.7317363681        2.6553527867
 H         -3.6352271754       -0.1225121547        2.8957706322
 H         -4.6089339163        0.5458976186        1.8986651303
 O         -5.6981042052        0.6572801598        0.3643668624
 H         -5.0877301516        0.8205584325       -0.3715641192
 H         -5.8597043965        1.5475127632        0.7646101145
 O          4.3362651226       -2.8250576580       -1.1226011185
 H          4.5617586859       -2.8312472041       -0.1709982609
 H          4.7185048432       -1.9945693353       -1.4588653983
 O         -6.0106196528       -2.2005572914        0.6719834303
 H         -6.3568949583       -2.4029077917       -0.2271893145
 H         -6.0968410440       -1.2434076968        0.7655569414
 O          5.0834731546       -2.2814867430        1.4223215054
 H          5.8667436990       -1.7855524233        1.1104019401
 H          4.6172572875       -1.6646607454        2.0001711883
 O          1.2832279702       -0.7227037714       -3.4642891224
 H          1.5161037910       -1.3996383437       -2.7978173788
 H          0.3561459163       -0.8726518944       -3.6849752061
 O         -5.5917488940        3.0245401941        1.5232278933
 H         -4.8650508884        3.3407405025        0.9532494045
 H         -5.1887640280        2.7730142408        2.3591609136
 O          6.8170231231       -0.4451047482        0.4215042226
 H          6.4711889858       -0.4278131609       -0.4824150836
 H          6.5279777820        0.3780310267        0.8332978308
 O          5.1049532910       -0.2655852515       -1.8140377639
 H          4.5844345457        0.4350184833       -1.4047328863
 H          4.8696527072       -0.2368544762       -2.7635359100
 O         -3.5305981639        3.3475835520       -0.2264628196
 H         -2.5748515674        3.3036877908       -0.1024915363
 H         -3.7673012165        2.6716299045       -0.8764543690
 O         -6.6480984941       -2.2991336585       -1.9299635869
 H         -5.7498875097       -2.2330111570       -2.2906167172
 H         -7.0353665321       -1.4139326206       -2.0387636885
 O         -7.4381036698        0.3508997010       -1.7418713572
 H         -6.9341483793        0.4681108539       -0.9134474503
 H         -8.3587190985        0.4947134670       -1.5236296000
 O          3.9435044534        0.0201267913       -4.2395527139
 H          3.6843746301        0.9472342806       -4.2227055085
 H          3.1154099054       -0.4763386055       -4.1969701567
