  251

 H          0.4630927077        1.1941025328        0.8323452958
 C          0.5529035760        0.5095402430       -0.0251092076
 H          0.4633421183        1.0989800597       -0.9466436096
 C         -0.5779259334       -0.5149488604        0.0205351876
 H         -0.4518492548       -1.1270258239        0.9278134324
 H         -0.4840892691       -1.1748678658       -0.8448928488
 N         -1.8603253886        0.1647702476       -0.0623309411
 H         -2.6131021661       -0.5138473280       -0.0751527666
 H         -1.9956541836        0.7570092261        0.7508171932
 O          1.7808081028       -0.1833448059        0.0209869108
 H          2.5006908393        0.4507195085       -0.0567171280
 O          2.3168582701        2.7080937960        1.2343481666
 H          3.2218808189        3.0610613168        1.3417301279
 H          1.9752976853        2.5405617596        2.1352402608
 O          1.4854251149        2.4297402290        3.7860908775
 H          1.3509626136        1.5738391237        4.2411500064
 H          0.5901586298        2.8103184712        3.6941085436
 O         -1.5660758615        1.1590232890       -2.4596936165
 H         -1.1332392143        0.3831287594       -2.8438514157
 H         -1.8081418625        0.8751496193       -1.5273312503
 O         -0.4713154699        3.5677267124       -2.0922177180
 H         -0.8527778506        2.6932504342       -2.3233271707
 H          0.4817143055        3.4270278818       -1.9001601496
 O         -1.0813711171        3.6336844523        0.5434680987
 H         -0.4985201664        4.3760730784        0.7739484462
 H         -0.9084007705        3.4938692135       -0.4073982715
 O         -1.1142658229        2.8001622328        3.1415034154
 H         -0.9778489501        1.8260985970        3.0437001210
 H         -1.1836021499        3.1510916777        2.2393136093
 O          2.0388363981        2.9805561977       -1.4640545775
 H          2.0858100330        2.7024789515       -0.5349386440
 H          2.1521109708        2.1930926641       -2.0322795629
 O          1.7401928378       -1.7960902537       -2.0949641885
 H          2.5780155025       -2.1215742064       -2.4890341979
 H          1.9275612653       -1.4585035804       -1.2024299394
 O          1.9068080071        0.7231693481       -2.9881922913
 H          1.7050021170       -0.1865509598       -2.6791618649
 H          1.2397828485        0.9131916831       -3.6747295208
 O         -0.7934522600       -1.4425503041       -3.3449708409
 H         -0.0410463466       -1.8509365509       -3.8416130702
 H         -1.2721863878       -2.1877973922       -2.9414388299
 O         -4.2373625842       -0.8312203467       -2.8155905158
 H         -3.5830772513       -0.6128228598       -3.4962976452
 H         -4.9097482707       -0.1160406064       -2.8766722506
 O          3.9756720703       -0.0746659205       -4.4993021009
 H          4.8516050982        0.1979206621       -4.1999229717
 H          3.3186502887        0.3158375968       -3.8790260444
 O         -3.7330559360       -2.1483309379       -0.4725319724
 H         -4.1988067787       -1.9768791543        0.3722086192
 H         -4.0597886873       -1.5294223870       -1.1508812658
 O         -2.1895471394       -3.5161756922       -2.1675195002
 H         -2.9338680721       -3.6603438336       -2.7922470063
 H         -2.5747622163       -2.9732886829       -1.4543911756
 O          1.6754881060       -0.9340290916        2.6323121215
 H          1.9953702284       -1.7866591541        2.9839549932
 H          1.5983182549       -1.0250566263        1.6682846271
 O         -0.7752575364        0.1973009418        3.1154352913
 H          0.0994744016       -0.2158208500        3.0200830971
 H         -1.0375549007        0.0672841256        4.0542588384
 O          3.5398524529       -2.6609459356        0.1311753518
 H          3.8062881833       -3.6043611901        0.0818512295
 H          2.6030544687       -2.6878372051        0.3913537641
 O          3.7624383907       -2.6428241674       -3.5405513081
 H          4.6187336683       -2.9720741937       -3.1911173134
 H          3.9535469454       -1.8087374505       -4.0116677097
 O          0.4421600775       -4.0550080307       -1.6185650531
 H         -0.4683887508       -4.0644389826       -1.9377609733
 H          0.8332975994       -3.2034505595       -1.9265545439
 O         -3.6222710994        2.7114070000       -0.0965209458
 H         -2.8374946863        3.1652957362        0.2468990278
 H         -3.8839026320        3.1968726480       -0.9092152268
 O          4.2287589650        1.0224085970       -0.1250527989
 H          4.6290871642        0.1937217790       -0.4797505535
 H          4.0871992541        0.8763655381        0.8399014712
 O         -5.1678715778       -2.2392198872        1.7807735175
 H         -5.4581808941       -1.4132133458        2.2060431695
 H         -5.9700765266       -2.7387738998        1.5493709366
 O         -3.3747413273       -0.1947961839        2.5674866280
 H         -3.4811809152        0.5922139308        3.1488043626
 H         -2.4127893320       -0.3455332062        2.5342463942
 O         -4.7177355373        0.3739896015        0.2701325280
 H         -4.3663185821        0.1281447376        1.1471501921
 H         -4.1655984363        1.1273725950       -0.0188442487
 O          4.7316751848        3.9021448571        1.4699503833
 H          4.4908974594        4.4393841412        0.6829003313
 H          5.5223151075        3.3994836654        1.2126886050
 O         -6.5952709650       -1.1322975188       -0.9052916945
 H         -7.1120644858       -0.5945320144       -1.5394670562
 H         -5.8586835420       -0.5795507766       -0.5872144036
 O          6.5919038574        2.0367356963        0.5836575819
 H          5.7451150225        1.7370159954        0.1811916636
 H          6.7956555359        1.3550948641        1.2527360946
 O         -0.9898160193       -2.5649845506        2.4260257858
 H         -1.7983805630       -3.1121477540        2.4276422308
 H         -0.6182164666       -2.5881313533        3.3297174713
 O         -5.7951961611        1.2972921037       -3.1199141238
 H         -5.9753574232        1.7701896860       -2.2810005202
 H         -5.0535930238        1.7688347497       -3.5435237454
 O          1.0004398983       -3.2015713965        0.8466774896
 H          0.2126530087       -3.0117644542        1.4161364522
 H          0.6697795708       -3.6086694356        0.0213970973
 O          5.4425344012       -1.1197695758       -1.0403117012
 H          6.3246453147       -1.3421250708       -0.6887251652
 H          4.8472481764       -1.8419028059       -0.7768797462
 O          3.8074981889        0.5415285794        2.4356926806
 H          3.9039112900        1.3183954880        3.0101600014
 H          2.9151003275        0.1525796077        2.6028622790
 O         -6.5100206186        2.1676664791       -0.6907399420
 H         -5.9764320082        1.5567969799       -0.1533104265
 H         -7.4489375117        1.9198011448       -0.5489028277
 O         -3.5263124642        2.0071568414        4.0859390871
 H         -4.2241723844        2.4230575947        3.5541957494
 H         -2.6962412240        2.4659380962        3.8414349012
 O         -5.3345802093        2.5387344800        2.1189614603
 H         -6.1887213318        2.9937814710        1.9851800012
 H         -4.7715915405        2.7438411930        1.3471677357
 O          1.1383111348        5.1681360547        0.8608518071
 H          1.5852339515        4.3110962024        0.9942448822
 H          1.6982764836        5.6725710985        0.2694162013
 O          4.9404766193       -1.8801977655        2.2852105915
 H          4.6106208597       -2.2154268282        1.4227753701
 H          4.5026236924       -1.0154101544        2.4103075204
 O         -8.1867949638       -0.9088849190        1.1586036502
 H         -7.6297592693       -0.5265900606        1.8564743644
 H         -7.5863533466       -1.0016826421        0.3717468467
 O         -8.1999991766        0.0811506570       -2.7204323846
 H         -8.2054562911       -0.7657535822       -3.1916664325
 H         -7.5101592784        0.6172314643       -3.1427712498
 O         -3.4150980120        2.1266591799       -4.1152617360
 H         -3.2912256753        1.5586694807       -4.8802153624
 H         -2.7603299002        1.7999283219       -3.4551310890
 O          0.0818041265        1.1582797271       -4.9483943353
 H         -0.8374509780        0.9091146800       -5.0855865433
 H          0.1354928234        2.1481237280       -4.9906861390
 O          3.9125997625        4.9081165429       -0.8881546272
 H          4.6135928173        4.6642547384       -1.5004653577
 H          3.1631061891        4.3501753892       -1.1679520851
 O          2.8477001810       -5.2156462252       -2.2161863699
 H          1.9179349644       -4.9962115847       -2.0329520380
 H          3.1737992010       -4.5078867936       -2.7818476910
 O          2.9624462990       -3.1116158013        3.6607961476
 H          3.7950413564       -2.8623148596        3.2095009425
 H          2.6977948347       -3.9646403180        3.2627539460
 O          4.1566189132        2.8282286116        3.9396651976
 H          4.3954572120        3.4259015777        3.2126934745
 H          3.1947109585        2.9105333151        4.0694496835
 O          6.9640536775       -0.1071325655        2.2613676159
 H          6.3503040198       -0.8677818582        2.1647636211
 H          6.7064907514        0.2689771552        3.1188840829
 O         -1.9004874929       -0.0000188666        5.5288496222
 H         -2.4529504417       -0.7959462730        5.4007688084
 H         -2.5001126135        0.7460490673        5.4156277136
 O         -4.5743462480       -3.4604301651       -3.4041262370
 H         -4.5630318933       -2.4984203346       -3.2188925011
 H         -5.0056064650       -3.8832098113       -2.6432580087
 O          8.0439670388       -0.9516843158       -0.1356632223
 H          7.8173202623       -0.5315775988        0.7070164933
 H          8.3435119330       -0.2394867722       -0.7177246266
 O          4.8793727305        2.6729330477       -2.3039359511
 H          4.4339858966        2.2555132542       -1.5534969011
 H          5.4409901033        1.9700719007       -2.6829019113
 O         -6.2254555107        0.0907672247        2.8392357912
 H         -5.8903359657        0.9626094274        2.5260785564
 H         -6.0855929612        0.0797937970        3.7867596051
 O         -3.6098683314       -1.9426617810        4.6324601733
 H         -3.3368306841       -2.8302211763        4.3924473744
 H         -3.6518943493       -1.4391353716        3.7945219620
 O         -5.4318144574       -4.2295278219       -0.8775291794
 H         -4.8654410527       -3.4590946441       -0.6617621033
 H         -6.2402217895       -4.1085415608       -0.3669731060
 O          0.2982129321       -2.5225321139        4.7931803597
 H          1.1629148042       -2.9265067521        4.6737510878
 H          0.4605741673       -1.5756256273        4.9396197899
 O         -2.4668420150       -0.3837783345       -5.0330036777
 H         -1.7883491345       -0.8224688217       -4.4501670465
 H         -2.6006928081       -0.9744538178       -5.7733410362
 O          1.1631635739        0.1306817784        5.2180333745
 H          2.0748751273       -0.2007898914        5.3861236980
 H          0.7292967585        0.2876884917        6.0573760516
 O         -3.2127882219       -4.0539905234        2.3862513825
 H         -3.1442761787       -4.5378252149        1.5425826081
 H         -3.9288037788       -3.4083832445        2.2525952237
 O         -2.9605222129       -5.3070778529       -0.0646483431
 H         -2.4844043756       -4.8568880378       -0.7777575550
 H         -3.8920429958       -5.2789000822       -0.3312093108
 O          8.2751158132        1.4866748021       -1.4209998714
 H          7.6728605540        1.8087800959       -0.7072275024
 H          8.8804310316        2.2004293526       -1.6168012549
 O         -2.2728729183        5.7038163709       -1.4773105695
 H         -2.5088188981        5.5846127130       -0.5402758692
 H         -1.5183772864        5.1283290097       -1.6590353323
 O          1.8204367200       -0.5117572469       -6.2392951748
 H          2.6793126921       -0.3456222338       -5.8286342979
 H          1.2101513711        0.1573798320       -5.8813267696
 O          4.0129796069       -5.3022070207        0.2133699314
 H          3.3547441658       -5.4988020941        0.9021962454
 H          3.5883576972       -5.4651064376       -0.6533672641
 O          0.4388517318        3.7385995461       -4.7384681483
 H          1.4012916710        3.6935146062       -4.6057577317
 H          0.0527444363        3.9530552235       -3.8752594447
 O          3.0974776524        3.0925025882       -4.3481285380
 H          3.7109069668        3.0468864343       -3.5905403456
 H          3.3639821630        2.4017655385       -4.9570774001
 O          2.0696671401       -5.1937760675        2.1595950209
 H          1.3140420688       -5.7686440631        2.3199307822
 H          1.6682430414       -4.4542053494        1.6328177071
 O          6.2772748394        0.4866532861       -3.0551600861
 H          5.9720898982       -0.2063813654       -2.4399682331
 H          7.1404885908        0.7644242842       -2.7145107809
 O         -4.2095129879        4.1141337912       -2.3271294391
 H         -3.9190590773        3.6339144014       -3.1107013608
 H         -3.5232638449        4.8004407266       -2.1550671454
 O          5.7628710996        0.7424712436        4.5892510442
 H          5.2464608012        1.5583001278        4.4401079395
 H          6.2877542154        0.8870843278        5.3737874437
 O         -5.9667942652        4.7778487243       -0.2916698979
 H         -6.0985253479        3.8169501055       -0.4380451657
 H         -5.6319065820        5.0832801485       -1.1409192809
 O         -7.4747284798       -3.5193340620        1.0856854952
 H         -7.9286567803       -4.1189240558        1.6758128433
 H         -7.9632762989       -2.6683407640        1.1049059551
 O         -3.5644876458        5.2365561236        0.9540868138
 H         -4.4591102315        5.0963062335        0.5805939138
 H         -3.6502076185        5.8715294556        1.6618779194
 O         -8.9801849710        1.3065211580       -0.2358885400
 H         -8.8996626769        0.5284593987        0.3519291122
 H         -9.1145825453        0.9476243994       -1.1232543606
 O         -7.7855042171        3.5748239200        1.5696741064
 H         -8.3806991124        2.9931481779        1.0845169690
 H         -7.5048855643        4.2654950482        0.9568847135
 O          5.8791836208       -3.8537117198       -2.4671964777
 H          6.0782237682       -3.6788015268       -1.5226103275
 H          5.6209971244       -4.7757927254       -2.5097441330
 O         -7.3468648237       -2.4906118310       -3.3316460072
 H         -6.6110136822       -2.8961749494       -3.8022701590
 H         -7.0909928841       -2.4773060508       -2.4006325928
 O          1.0715486420       -2.6205607198       -4.7978569886
 H          1.9172841097       -2.8721216459       -4.4131507548
 H          1.2936890503       -1.9277895546       -5.4603752363
 O         -0.6964492633       -5.7032167404        1.8868957675
 H         -1.2749838458       -5.3173560089        2.5496335659
 H         -1.2494936603       -5.8413636407        1.1116173331
 O          3.5982128966       -0.9131760799        5.4131288742
 H          4.3568158358       -0.4582221504        5.0160519690
 H          3.4911817709       -1.7505654906        4.9442954713
 O          6.1862876709       -3.6174050007        0.1858261967
 H          7.0182822806       -3.6201694862        0.6900603811
 H          5.6894541535       -4.4092086534        0.4268583252
 O          8.4827685182       -3.0967152077        1.5399769011
 H          8.2073595048       -2.5918769160        2.3085993946
 H          8.6275386190       -2.4506569515        0.8313815511
