  462

 H         -0.5425054112       -1.1597996584        0.9180873612
 C         -0.6112510051       -0.5412956739        0.0100749193
 H         -0.5391308395       -1.1969144470       -0.8712436591
 C          0.5103658647        0.5037878338       -0.0094871830
 H          0.3911098456        1.1518924074        0.8600966298
 H          0.3944399221        1.1152669957       -0.9056411618
 O         -1.7891825170        0.2100258094       -0.0077307031
 H         -2.5646581753       -0.3620747639        0.0026734611
 N          1.8637421187       -0.1172780953        0.0059475177
 H          1.9871272138       -0.7237037746       -0.8163106219
 H          1.9839787967       -0.6890763206        0.8531041607
 H          2.5930828886        0.6072400318       -0.0077051370
 O          5.3020139873       -4.4664675252        0.6360211964
 H          4.9329607113       -3.5612673278        0.5160981677
 H          5.1830121758       -4.6902164022        1.5675986261
 O          2.2153132907       -1.2711456070       -2.3455791099
 H          1.4350477749       -1.6488698948       -2.8050962880
 H          2.4129377583       -0.4243454233       -2.7829281737
 O          0.1812650678       -2.4845100828       -3.4398203254
 H         -0.2677677347       -2.9427456025       -2.7072699045
 H         -0.2444824385       -1.6109524286       -3.5546095665
 O         -2.5118696791       -1.6680715871       -2.5318967954
 H         -3.0708323204       -2.3954716667       -2.2098181858
 H         -2.3809810912       -1.8744462266       -3.4758223337
 O          1.8975426160       -0.9004014536        2.5240111637
 H          1.9451270335        0.0524421559        2.7370226504
 H          2.7477840013       -1.3108864434        2.7825267670
 O          1.9971730657        1.7835081547        2.6617315821
 H          2.5273574850        2.2549662054        3.3309683241
 H          1.0948668029        2.1557751389        2.7416925904
 O         -0.2658148803        0.1030525316       -3.8035782298
 H         -0.7315571286        0.0319326491       -4.6604795110
 H         -0.8715318146        0.5770781551       -3.1924081772
 O          1.9353542053        3.1665938207       -1.7003184615
 H          2.4434582918        3.9481365410       -2.0099630308
 H          1.0011552398        3.4409069723       -1.6130272685
 O          1.0865485460        3.7802482046        1.0071699693
 H          0.4727605176        4.1901205694        0.3887635764
 H          1.0163433279        4.3100576908        1.8187602408
 O          0.3845962671        6.5731058338       -1.8030644009
 H          0.6669600961        5.9400825650       -2.4927456285
 H         -0.3027387547        7.1038573850       -2.2079388373
 O         -1.7445670320        1.5825676161       -2.2402973902
 H         -1.8782494804        1.0928588816       -1.3991468060
 H         -2.6183133181        1.6668238785       -2.6811804897
 O          2.0834117305       -3.9744296378       -1.6892217799
 H          2.8786014584       -4.5487113338       -1.5643221940
 H          2.3988037886       -3.1184161166       -2.0092118539
 O         -0.6562464646        3.7908071529       -1.4061164017
 H         -0.9831742114        4.5049299976       -1.9754334522
 H         -1.0510126942        2.9721480279       -1.7910187831
 O         -0.9932478323       -3.7092403065       -1.3327090799
 H         -0.7880096709       -4.5181926946       -0.8163248842
 H         -1.5849562298       -3.1731658809       -0.7918288288
 O          2.7070181273        0.8990124024       -6.0886020688
 H          3.0377712316        0.1622369497       -5.5368311408
 H          3.4739118073        1.4717257825       -6.1979073597
 O         -0.5483936181       -5.9999731533       -0.0548369301
 H          0.3108977591       -6.3951454401       -0.3049533197
 H         -0.5253564427       -5.8785505740        0.9081635591
 O         -0.9409079105       -3.7238232107        1.6859382964
 H         -0.4928204157       -3.4254446028        2.5086302248
 H         -1.5827754814       -3.0368877420        1.4121865927
 O          4.4837478663       -2.7215990353       -2.5203278114
 H          4.3097395657       -2.4382300929       -1.6039883732
 H          5.4273485793       -2.9284687939       -2.5696578658
 O         -0.4589549660        2.6389681034        3.1747458204
 H         -0.5052175364        3.4053838470        3.7836061043
 H         -0.9744870616        2.8686669309        2.3728442964
 O         -1.7306092453       -1.2177532008        2.8266310452
 H         -2.1997652836       -1.8282377159        3.4311572591
 H         -2.3340206571       -0.4831557000        2.6078148629
 O          1.5084399543       -3.2131562102        0.7209808309
 H          0.5830466294       -3.3466184797        1.0030180122
 H          1.5536921300       -3.5287904927       -0.2093124721
 O         -3.0855686975        1.1021716387        2.2667909323
 H         -2.6187031814        1.6568807913        1.6203744374
 H         -3.9539203162        0.9027317431        1.8700997344
 O         -1.8766324885        3.2356722386        1.0051457036
 H         -1.3837967383        3.2811157474        0.1709038901
 H         -2.3325434025        4.0958004101        1.0644914631
 O          3.9573758360       -2.2101630953        0.1555037993
 H          4.2470073600       -1.4161848003        0.6509832471
 H          3.1078640925       -2.4948402810        0.5223455504
 O          3.0070794884        1.1722281046       -3.0903600730
 H          2.5346285584        1.9228321331       -2.6774099299
 H          3.5625286756        1.5362574366       -3.8119841747
 O         -5.5765329999        0.5000921475        1.5598957464
 H         -6.2326599491        0.4475090158        0.8504519474
 H         -6.0116955188        0.8865492906        2.3477276248
 O         -2.9131240261       -2.3791311414        0.4525254995
 H         -3.3883215000       -3.2079115609        0.2398039262
 H         -3.4174333582       -2.0552824745        1.2224425605
 O          6.5249716026       -1.4627990348       -0.5030878999
 H          6.7141928978       -2.0544715603       -1.2431123026
 H          5.8334807584       -0.8412755392       -0.7959783940
 O         -4.5560053806       -3.4219273925       -2.1762460581
 H         -4.7721602187       -4.3640774777       -2.0778219417
 H         -4.6611702195       -3.2407077446       -3.1244567621
 O         -2.2269222844       -2.5976874951       -5.0465584010
 H         -1.6432614761       -3.3778488849       -5.0859026858
 H         -3.1432929348       -2.9205202237       -5.1215983340
 O          4.5887833109        0.0427007365        1.4923288290
 H          4.3079205181        0.1501618736        2.4108410552
 H          5.5413581775        0.2170152459        1.4683619686
 O          4.0571159906       -2.2804478355        3.1611479511
 H          3.9684976344       -3.2454472507        3.1027508829
 H          4.9447943220       -2.1178877547        2.7500986715
 O          3.2378372112        2.0970021593        0.3121738377
 H          2.7416657193        2.6150001539       -0.3606436407
 H          2.7263564275        2.1392910826        1.1493713456
 O          3.4978350235        4.9016037058        0.6823563475
 H          3.1952729067        5.7967277253        0.4266333866
 H          2.6703624578        4.3789737215        0.7188764769
 O         -2.5086541720       -5.0416876354       -3.1755488634
 H         -1.9387669287       -4.4704203137       -2.6254841253
 H         -2.0230932514       -5.2355377631       -3.9800897464
 O         -3.9230922973        2.9204997052        3.9928592165
 H         -3.5129471186        2.2061879289        3.4400575430
 H         -3.4474010672        2.9069274685        4.8380915615
 O          3.4257142739        5.0931439350       -2.7006549282
 H          4.2194253039        4.5652903615       -2.9320875611
 H          3.7802534280        5.7818495158       -2.1088317431
 O          4.1035130652       -5.6321366513       -1.4361304859
 H          4.7729423944       -5.7274818757       -2.1463807456
 H          4.5926840465       -5.3364505461       -0.6430790503
 O         -4.5769542558       -1.7893993795        2.4984309036
 H         -4.6074848109       -1.6554042038        3.4655464454
 H         -5.0498176003       -1.0276665207        2.1047259860
 O          0.9083693895        2.3590634366       -4.6835383696
 H          1.5973071953        1.9763105902       -5.2598049202
 H          0.5699408410        1.5846415879       -4.1883921842
 O         -5.0456605544        4.0859233525        1.7559886207
 H         -4.8475335106        3.7255107741        2.6305222231
 H         -4.8191821188        3.3795417944        1.1242430759
 O          1.0112716847        4.9726895460       -3.9292474585
 H          1.9562889569        5.1415112870       -3.8001349174
 H          0.9535078104        4.0286056661       -4.1719094072
 O          0.6881823108       -2.9832770289        3.6108934050
 H          1.0407029586       -2.1621424747        3.2142159978
 H          0.2240555939       -2.7399997031        4.4386026971
 O          2.2766173118       -5.5032093645        1.7922966535
 H          2.0777765786       -4.5935873700        1.4580852424
 H          3.1295631666       -5.4715939759        2.2371394913
 O         -2.8273522289       -5.1495033638        2.8651047530
 H         -2.5206160273       -5.9722517607        3.2441927114
 H         -2.0466626239       -4.7506914095        2.4051430256
 O          1.7708928588       -0.8474527213        5.5513387635
 H          1.2796217622       -1.5688871383        5.9611651049
 H          1.0947151640       -0.3751390198        5.0280270723
 O         -2.7124593918       -3.0137886741        4.5629419059
 H         -3.5618732496       -2.7312131781        4.9291022757
 H         -2.8734728052       -3.8321470153        4.0577004544
 O         -0.3919313276        0.2978855249        4.3966834664
 H         -0.7790353363       -0.3624613666        3.7578441646
 H         -0.4220335654        1.1555802385        3.9240045911
 O         -0.4059325959        6.1383792043        0.8421932173
 H         -1.3688430555        6.1691288320        0.8672465069
 H         -0.1438481848        6.3477201944       -0.0642247221
 O         -1.4624160995       -0.3408815018       -6.1651293790
 H         -1.7546572799       -1.2308675289       -5.8677858554
 H         -0.6375779096       -0.5059727342       -6.6918705005
 O         -5.5886971859       -1.9379485642       -0.1896019952
 H         -6.0736657204       -2.3219059656        0.5501704026
 H         -5.3343932050       -2.6357100378       -0.8211084519
 O         -4.2778462506       -0.0580076875       -1.4676278575
 H         -4.6285132188       -0.6661307577       -0.7945837487
 H         -3.5496595769       -0.5428233785       -1.9175020808
 O          4.8668385783        0.4037328092       -1.4042894205
 H          4.7238357751        0.9557171317       -0.6282842412
 H          4.1464921064        0.6301952656       -2.0362116682
 O         -4.4351112523        2.3558785888       -0.2462299736
 H         -4.0153398114        3.0229709570       -0.8102179428
 H         -4.3613802093        1.4993970200       -0.7039643747
 O          5.5978423857        2.9591460322        1.0295376832
 H          4.6641292985        2.7228488231        0.8396517298
 H          5.7122553092        3.1319281439        1.9770964119
 O         -6.3251008982       -0.9798427186       -3.0598549068
 H         -5.5932731186       -0.6350249613       -2.5117712872
 H         -6.6379679498       -1.8065165974       -2.6485342243
 O          6.6180888941        4.0723199278        3.2835796892
 H          6.4513736333        3.7103629179        4.1827671908
 H          7.4706935389        3.7047461731        3.0096964082
 O          4.8120468885        2.0987480427       -4.8643087074
 H          5.0808121710        2.9394688955       -4.4643170033
 H          5.5059777259        1.4772357113       -4.5673758962
 O          6.6221600546        0.6066606982       -3.5231551115
 H          6.1222073015        0.5321002528       -2.6900208942
 H          6.5758760444       -0.2539150774       -3.9976447548
 O          3.9084000793        0.3258345099        4.2818085282
 H          3.7557113106        1.2648569447        4.4670309539
 H          3.2084795999       -0.1560931013        4.7514840605
 O         -3.3137417677        3.9114821502       -5.0466596682
 H         -3.5350660906        3.2112146831       -4.3958706976
 H         -2.6212348888        3.5138118581       -5.6088370553
 O         -3.1489934449        5.6385218504        0.8152059707
 H         -3.2674446670        5.4413136790       -0.1390645716
 H         -3.9725251622        5.2868340223        1.2142840166
 O         -0.5691203686       -4.7658277205       -5.2346863019
 H          0.0214698112       -5.1464555203       -4.5544224791
 H          0.0106264326       -4.4511824664       -5.9332202149
 O         -3.1390524991        0.3996817721        5.3364513964
 H         -2.2345183306        0.2838331825        5.0125443661
 H         -3.1190980454        1.1490510595        5.9357183003
 O         -3.6186231953        4.6103944098       -1.5856782454
 H         -4.5612122528        4.7087716813       -1.8544378697
 H         -3.0703846957        4.9487877157       -2.3030723424
 O          3.6758810057       -1.2985884832       -4.7948293935
 H          3.7521123908       -1.5736458400       -3.8642945475
 H          3.0077902083       -1.8863024583       -5.1984953563
 O          0.8644809184       -0.8189962300       -7.2322934790
 H          1.5018999011       -0.1271712118       -6.9948442077
 H          1.1872734377       -1.6332137407       -6.8204267609
 O         -7.3263316536        0.0323830519       -0.6588847340
 H         -6.7861739886       -0.7762592028       -0.5706245998
 H         -8.2454798483       -0.2773102839       -0.7372786769
 O         -3.9676357149        1.8114695035       -3.5573882500
 H         -4.8132026202        1.7456374474       -3.0581007261
 H         -4.0382532295        1.2639997684       -4.3572373610
 O          6.9374269460        2.3312532299       -1.2036682478
 H          6.5529231688        2.5238908256       -0.3301949293
 H          7.7381710345        2.8808765249       -1.3196211932
 O         -8.6697791114        0.9103597222        1.6437076159
 H         -9.1020258453        1.4610215476        2.3219810391
 H         -8.0661193590        1.5048340821        1.1499229823
 O          1.6930502957       -2.9523807420       -5.6218250446
 H          1.0820509060       -2.8377034684       -4.8668348868
 H          2.3065655183       -3.6682001500       -5.3624377427
 O          1.0962122646       -5.7540847545       -3.3370554908
 H          1.2388400821       -5.0409106057       -2.6740987993
 H          0.9994197134       -6.5656214553       -2.8363387696
 O         -1.3124879094        2.5417185955       -6.2217693134
 H         -0.4902017121        2.6436774532       -5.7027799153
 H         -1.3354904530        1.6118511984       -6.4666312336
 O         -0.4343331960       -2.6580879723        6.0031280618
 H         -1.3500215979       -2.5858103821        5.6865607594
 H         -0.3048750277       -3.6254704701        6.0737872971
 O          7.2102872411       -3.1910212564       -2.6268219681
 H          7.5039829552       -3.7192964789       -1.8278658213
 H          7.9667452132       -2.6159631128       -2.8492759716
 O          1.9115293611       -6.9409267504       -0.4878913101
 H          2.6843368497       -6.6855748192       -1.0157047514
 H          2.1255502349       -6.6066307833        0.4014741335
 O         -7.1293427503        2.6291408041        0.3279989683
 H         -6.2105036386        2.4722993572        0.0458770031
 H         -7.6700497162        2.7011786515       -0.4746651074
 O          5.7319637068        3.8525590652       -3.0614924099
 H          6.3685350142        4.5733627910       -2.8880572120
 H          6.0038448728        3.1417298901       -2.4452074078
 O          9.1963708809       -1.3418757037       -2.8561826917
 H          8.8961685974       -0.6953211681       -2.1627602299
 H          9.4348128070       -0.7941435289       -3.6075612333
 O         -0.5151834771        4.7930323486        4.7523443604
 H         -1.3615727923        5.1897888518        4.4415734231
 H          0.1753445703        5.2542501819        4.2398668575
 O         -3.8956704791        0.7669954435       -6.0475376970
 H         -3.8784991367        1.5542105525       -6.5950687273
 H         -3.0267902022        0.3312690550       -6.1594577167
 O         -2.9969795102       -6.6029066447       -1.0778478325
 H         -2.8720581858       -6.1387205129       -1.9352988061
 H         -2.1106150111       -6.6170028656       -0.6794218396
 O         -6.3922684593        1.6395952226        3.8427170308
 H         -5.5308871833        1.9805280111        4.1334694108
 H         -6.9084960842        2.4269967298        3.5868206801
 O         -4.9298823208       -1.6182927169        5.1580518872
 H         -4.4300693542       -0.8095869230        5.3619090901
 H         -5.8705105920       -1.3806511697        5.0945835906
 O          1.3527987388        3.3059393353        6.2043530380
 H          0.8642605265        2.5390257034        6.5423838139
 H          0.6966948772        3.9098340517        5.8320393569
 O         -6.1393456613       -0.7002567088       -5.6527728152
 H         -6.1412704137       -0.7991804080       -4.6689486361
 H         -5.3109365695       -0.2536149975       -5.8913540143
 O          3.3965718430        3.0153685227        4.5829141641
 H          3.5706885564        3.8766989261        4.1278684777
 H          2.6792765550        3.1766122275        5.2390422419
 O          6.5486779683        0.4715674388        4.3119026941
 H          5.6063705310        0.2202883239        4.3712683106
 H          6.7314135976        0.5689515408        3.3428614519
 O          6.3813279082       -2.2723210719        2.0954967053
 H          7.1273274216       -2.1110239395        2.6937514019
 H          6.6121088379       -1.9328421984        1.2178775562
 O         -6.3216405761        1.8052484422       -2.4233297236
 H         -6.7797832524        1.7079446476       -3.2787703870
 H         -6.6865524218        1.1311017236       -1.8079948646
 O          8.4872121840        0.2067112162       -0.8655740251
 H          7.9101848692        0.9827322198       -1.0411375492
 H          7.8978355730       -0.4570078162       -0.4425756609
 O         -7.5807346135        3.8217374787        2.8248385168
 H         -7.3050098820        4.7374289628        2.8674280941
 H         -7.4660988074        3.5504343034        1.8923617751
 O         -7.5087512437       -1.5564496566        1.7387556884
 H         -7.3627022466       -1.5974501200        2.6994924008
 H         -7.9668475181       -0.7042481375        1.6134516625
 O         -4.1100371648       -4.7593763217        0.4664926280
 H         -3.7044533990       -5.4657888003       -0.0886232053
 H         -3.8680802877       -4.9520431023        1.3874888034
 O          4.0485834219        5.1786745671        3.2111180190
 H          5.0005588804        5.0996701782        3.3354850777
 H          3.8899181079        5.0440575801        2.2355903184
 O          6.3531292170       -1.6031860938       -4.9439181683
 H          6.5315023849       -2.4191367816       -4.4709411222
 H          5.3865596265       -1.5477427669       -5.0764300078
 O         -6.7834887486       -4.6003381067        0.3589438959
 H         -5.8030281615       -4.6483202484        0.3503840031
 H         -6.9684352529       -4.4369527705        1.2966831186
 O         -7.4418549158       -3.1757856484       -1.8764767040
 H         -7.2947042795       -3.6834016962       -1.0584512855
 H         -8.4061171893       -3.2142460668       -2.0837653713
 O         -0.1055392532       -6.2105800951        2.7401554751
 H         -0.0192809184       -7.1575284236        2.8439696403
 H          0.7951031942       -5.8844877694        2.5166400319
 O         -0.2855808840        1.1812168488        6.8937671083
 H         -0.1027593081        0.4742735362        7.5114521584
 H         -0.3204213754        0.7682799810        6.0047390961
 O         -9.5602231545       -2.9384667067        0.9138488085
 H         -8.7162531507       -2.5379457245        1.2464303819
 H         -9.3486853802       -3.8136797682        0.5883896950
 O          7.2658532259        0.6663355816        1.7727861061
 H          7.5497849806        1.5739440597        1.5653878441
 H          8.0908327014        0.1616422704        1.9062477108
 O          8.3848077973        3.1509649025        1.2547317511
 H          9.3102282313        3.0800157334        0.9717016147
 H          8.0312407499        3.9631599715        0.8758630002
 O         10.8310363670        0.2693133264        0.3010821391
 H         11.3040035508       -0.4666486564       -0.1027237476
 H          9.9311946540        0.2455084606       -0.1158069639
 O          5.9768643121        2.8611867499        5.5573381731
 H          6.1763027554        1.9423517482        5.3138198145
 H          5.0146325058        2.9582482137        5.4668882618
 O         -8.8326227922        0.3057067286       -3.1345853809
 H         -8.0022265044       -0.2066098762       -3.1562681813
 H         -9.4332611197       -0.2271218808       -2.6009459716
 O          8.9495234138       -2.1202337150        0.8860828939
 H          9.7735022103       -2.1061208795        0.3774421530
 H          9.0937570664       -2.7003273808        1.6517027815
 O          3.4334217800       -4.5527228473       -4.3702339183
 H          3.6955605540       -3.9478916751       -3.6522175676
 H          2.7849096906       -5.1712880062       -4.0001653525
 O          2.5530375302       -4.4257348317        4.9167090425
 H          3.0642323256       -3.7926033867        5.4514025157
 H          1.9466545091       -3.8891452416        4.3562521849
 O         -9.8703445382       -1.0433688941       -0.9535770517
 H         -9.8412149513       -1.7433582732       -0.2619500166
 H        -10.4583744378       -0.3503365651       -0.6074591110
 O        -10.9266625838        1.1023760896        0.2118822164
 H        -10.0714374782        1.0662254335        0.7032230267
 H        -11.0814482851        2.0230019610       -0.0026753244
 O          7.8022280854       -4.2279555444       -0.3373648626
 H          6.9152379121       -4.3700701205        0.0480574919
 H          8.1514411819       -3.4171051861        0.0957940753
 O         -6.3020684822       -3.8774481182        2.9150929817
 H         -5.6252530722       -3.1987810735        2.7234304215
 H         -6.6473979190       -3.6822904994        3.7856312718
 O         -2.8243730513        5.4809725318        3.7072028396
 H         -3.3097830004        4.6391604986        3.7416799989
 H         -2.8369438140        5.7892393283        2.7965718080
 O         -6.1935434623        4.4863748202       -2.1872916132
 H         -6.2588755240        3.5130579369       -2.1081674176
 H         -6.2365920501        4.6379946929       -3.1539741081
 O          6.5442778821        5.3390916120        0.5334307524
 H          6.5864361755        5.7130875522        1.4150939230
 H          6.0284980951        4.4954711281        0.6277620393
 O          8.0964463757       -1.7306538006        4.1469171165
 H          7.5715852084       -0.9611397475        4.4344330227
 H          8.8900640501       -1.3608783969        3.7331738717
 O         -7.3985372728       -0.9290535112        4.3714801697
 H         -8.3605591495       -1.0971781171        4.2858361020
 H         -7.2642908972        0.0253351973        4.2763042137
 O         -4.8464994763       -3.0858930088       -4.9560967043
 H         -5.3075033225       -2.3695927497       -5.4157882428
 H         -5.5260116712       -3.7744283938       -4.7783622996
 O         -9.8779935393       -1.5127306942        3.5826602674
 H        -10.5211461621       -0.7935353010        3.4181265763
 H        -10.0053644603       -2.1367646641        2.8615470663
 O         -8.8919309386        2.7102071581       -1.8445510700
 H         -8.7075674561        3.3500012320       -2.5341895154
 H         -8.9264972639        1.8283464275       -2.2736941321
 O         -7.1805684989        5.4094614622        0.2818685657
 H         -6.4375996752        5.0454274930        0.7804423523
 H         -6.9505592570        5.2609292447       -0.6467986088
 O        -10.0904291148        2.8496863529        2.8434772841
 H         -9.3968005048        3.3099710267        3.3299388383
 H        -10.1367363587        3.3285009471        1.9916312191
 O          1.2511447755        5.6897540796        2.9669148458
 H          2.1717903169        5.9512416481        3.0703816993
 H          0.8423969593        6.2263615775        2.2691366227
 O         -7.3314513830        1.6579608121       -4.9611004939
 H         -6.9564487153        0.8666345875       -5.3953892889
 H         -8.2394196760        1.4173916173       -4.7474389706
 O          7.5323013708        5.5700218501       -2.0609098067
 H          8.3103496154        4.9989053819       -2.1505992525
 H          7.3178706687        5.5647082216       -1.1158395016
 O         -9.6832745292        4.0912644136        0.4505522788
 H         -8.9180801821        4.6896833356        0.4979615134
 H         -9.5719499631        3.6166765068       -0.3837753611
 O         -0.0256787778       -5.2676332230        5.4245427473
 H          0.9414615085       -5.2160567072        5.4439411357
 H         -0.2420253719       -5.4677981563        4.5019218289
 O         -6.7659247569       -4.6069461996       -4.0211321466
 H         -7.0038379865       -4.0829601899       -3.2184099831
 H         -6.4128747670       -5.4274513740       -3.6621885232
 O          9.1155200185        1.4804028333       -3.7016818131
 H          8.1795901332        1.1957750053       -3.5641666515
 H          9.1460498245        1.8570991288       -4.5805616316
 O         -6.1150086287        4.2478561910       -4.8300714364
 H         -5.1824053675        4.2319322248       -5.0893418350
 H         -6.4915598899        3.3830141100       -5.0403859255
 O         -1.7139054631        5.3553081672       -3.4810667636
 H         -0.8409872385        5.3428086687       -3.8948421889
 H         -2.3126839112        4.9370432989       -4.1400565279
 O          9.2649272519        3.4655225508       -1.8763275208
 H          9.9670879393        3.3187847642       -1.2267632532
 H          9.3504372653        2.7584941545       -2.5506151301
 O          4.5659216257       -4.9574167565        3.2817930853
 H          5.3820151199       -4.6969285569        3.7574614471
 H          3.8811290808       -5.0106865873        3.9840895762
 O        -11.5559198587        0.4730429196        2.8680802707
 H        -11.2106329597        1.3434167976        3.1065394229
 H        -11.6457491735        0.4921739889        1.9052334386
 O         10.9920804492       -2.1785228710       -1.0008929889
 H         10.4162173998       -1.9413339912       -1.7580328941
 H         11.2617737223       -3.0870632564       -1.1325940243
 O          4.2268345383       -2.4458058103        5.8100527500
 H          4.2037260080       -2.2080444426        4.8533958668
 H          3.7326521765       -1.7637581234        6.2673050856
 O         -5.6198155696       -5.9877029851       -1.9107598892
 H         -4.8959188758       -6.5498420914       -1.6150651485
 H         -6.2262168517       -5.8808303894       -1.1692707813
 O         -2.2510989755        2.9700677922        6.2005468148
 H         -1.5804978170        2.4061111836        6.6185881653
 H         -1.7914418612        3.7823042955        5.9643855684
 O         10.9170320290        2.8924695854        0.2527045863
 H         10.9968819064        1.9100770598        0.2358015774
 H         11.6860511488        3.2245779514        0.7120805971
 O         -8.3934642116       -2.3660627540       -4.8459915836
 H         -7.9469700289       -3.2198776608       -4.8135106664
 H         -7.8409430274       -1.7849039129       -5.3752361269
 O          2.4942455158        7.2336570685       -0.1003303090
 H          3.2695207397        7.4877650406       -0.6116516142
 H          1.7745236993        7.0837699666       -0.7319601814
 O          4.9696998985        6.7546045901       -1.2611500192
 H          5.6958059926        6.7837765354       -1.8896090992
 H          5.3171785765        6.2554058627       -0.5004287575
 O          9.7066669791       -0.0306146473        2.7522137651
 H         10.2573498056        0.0326573340        1.9526878955
 H          9.6840940510        0.8429764616        3.1667177216
 O          6.5011969729       -3.8764515321        4.7889010270
 H          7.1449790126       -3.1711148493        4.6167701980
 H          5.8714500467       -3.4947239952        5.4132013058
 O          8.7604544710       -4.2864843292        2.5207970722
 H          8.1353493863       -4.3613525858        3.2463287034
 H          8.4261067648       -4.8251283297        1.7967890463
 O          5.8534971194       -5.5487255095       -3.4558677619
 H          6.4651879760       -4.8124712909       -3.3280702215
 H          5.2039944684       -5.2817224909       -4.1226364824
 O          8.7780169751        2.2311706356        4.0781228904
 H          8.0573299802        1.6461873321        4.3485932821
 H          8.9565431221        2.7983347504        4.8262561470
 O         -9.9381313609       -3.1504852468       -2.6947144855
 H        -10.2544114439       -2.3831256176       -2.1974347776
 H         -9.6813350492       -2.8315638512       -3.5718850687
