  147

 H         -0.5425054112       -1.1597996585        0.9180873602
 C         -0.6112510051       -0.5412956741        0.0100749184
 H         -0.5391308395       -1.1969144470       -0.8712436601
 C          0.5103658647        0.5037878336       -0.0094871839
 H          0.3911098457        1.1518924073        0.8600966288
 H          0.3944399221        1.1152669956       -0.9056411630
 O         -1.7891825170        0.2100258093       -0.0077307040
 H         -2.5646581753       -0.3620747641        0.0026734602
 N          1.8637421187       -0.1172780949        0.0059475208
 H          1.9871272141       -0.7237037740       -0.8163106224
 H          1.9839787968       -0.6890763206        0.8531041602
 H          2.5930828886        0.6072400317       -0.0077051380
 O          4.9344273109       -0.0273184127       -1.4910824301
 H          4.5699868686       -0.7556742832       -0.9486262723
 H          5.8183253724        0.1861738497       -1.1137216520
 O          0.1324253580        0.1447495781        3.4565626646
 H         -0.4931791294        0.7946853256        3.0991291132
 H          0.9865312380        0.6013892715        3.5379860749
 O         -1.6245463315        1.9006558930        2.1118258070
 H         -1.6357814945        1.3017634850        1.3331977025
 H         -2.4828080849        1.7188411715        2.5319913953
 O          2.4112058414       -0.7713912615       -2.5467792550
 H          2.8339232094       -1.6548576078       -2.6320500899
 H          3.0395622328       -0.1143903873       -2.8791334050
 O          1.2198599612        2.4190340325       -2.8147596798
 H          0.4402591661        2.1880855491       -3.3455357615
 H          0.9485845691        3.1216997721       -2.2046571033
 O         -1.3603682721       -2.3181292119        3.4778960164
 H         -0.9303347382       -1.4866685329        3.7085561473
 H         -2.0934993758       -2.0997047446        2.8770956144
 O          1.7157773258       -1.7536065033        2.1899076119
 H          1.1591253097       -1.2351723440        2.7902252871
 H          1.1799722580       -2.5336221428        1.9255839316
 O          3.8519461030       -2.1613916932       -0.1903447528
 H          3.0088353845       -2.5637784632       -0.4699826030
 H          3.9910425347       -2.3741935393        0.7454216875
 O          0.8120298917        4.0801134040       -0.6123802694
 H          1.0877632229        3.6560402754        0.2285375598
 H          1.3382999136        4.8770062290       -0.6886875447
 O          1.3423842385       -2.8873883786       -0.7952184198
 H          1.1867868087       -3.2356081695       -1.6913240202
 H          0.9971641642       -3.5263737089       -0.1667404498
 O          1.0671480822        3.1296164286        1.8834126616
 H          0.2307758253        2.9952131250        2.3378988958
 H          1.7280993883        2.5702199339        2.3325845925
 O          3.2672524127        1.9938686999       -0.7490796588
 H          3.9530379658        1.4123130042       -1.1331377672
 H          2.6778187599        2.2292361883       -1.4698050575
 O          2.6154399713        1.3254551475        3.2071267760
 H          3.2417233687        0.9460807519        2.5339478507
 H          3.1516373497        1.5440261548        3.9695490828
 O          0.0154088389       -3.7534410504        1.6415676711
 H         -0.4650228353       -3.4900519984        2.4508104908
 H         -0.6726887803       -3.7903250922        0.9557723406
 O         -3.1398299683       -1.7948809773        1.4278459590
 H         -2.6693171688       -2.4025257066        0.8116890494
 H         -4.0500987836       -2.1537237050        1.4800510098
 O         -1.9762362685       -3.5362564240       -0.2402566891
 H         -2.7392042442       -4.1369259054       -0.1554018788
 H         -1.9904580786       -3.2250582538       -1.1727578657
 O         -2.2633858111       -2.4109373523       -2.6604820318
 H         -2.9096334135       -1.8282419930       -2.2103733072
 H         -1.4954510187       -1.8460807971       -2.8637830716
 O         -1.1470334690        1.5842468255       -3.9541354312
 H         -1.7402510155        1.0812414125       -4.5427931029
 H         -1.7361710348        1.9012152639       -3.2435024417
 O         -3.9496828245       -0.8587851777       -1.2691715863
 H         -4.7574005640       -1.3551442117       -1.0783396156
 H         -4.2233051723       -0.1705973267       -1.9092115003
 O         -0.1354022628       -0.8516048063       -3.2250620512
 H         -0.4359704387        0.0142870310       -3.5549384480
 H          0.8062897238       -0.7431989617       -2.9763911180
 O         -2.5727320925        2.1027443817       -1.6991433734
 H         -2.2863194270        2.8755543199       -1.1775338497
 H         -2.1565829775        1.3307080765       -1.2729625665
 O          4.3103222727        0.5243145660        1.3820540887
 H          5.0013585058       -0.1651065365        1.3752662051
 H          4.7410812819        1.3390978348        1.0735939466
 O         -3.9931016180        0.6319274843        2.2861493668
 H         -3.5945718015       -0.2219965965        2.0352082404
 H         -4.2935081173        1.0295096754        1.4373078878
 O          6.3405430806       -1.3381981962        1.2002950163
 H          5.9981164876       -1.9086338385        1.8956770571
 H          6.4225111398       -1.9183273273        0.4109585126
 O         -4.6726985835        1.7620313697       -0.0236010280
 H         -4.7933363523        2.7082425958        0.1713043395
 H         -4.0063592300        1.7527570605       -0.7436473208
 O         -6.2813105217       -0.4214362269        3.0821693815
 H         -6.3368798833       -0.4520062825        4.0367308486
 H         -5.4284745805        0.0343940924        2.8637895783
 O         -1.7770082535        3.8914661678        0.1805405666
 H         -1.6704354611        3.3098547880        0.9550838027
 H         -0.8772459686        4.1190201066       -0.1183383940
 O         -5.7172849382       -2.5703112301        1.4637541678
 H         -6.0572462665       -1.9535420268        2.1329594563
 H         -6.1063223584       -2.2830534413        0.6165938108
 O          7.2993723496        0.6618473907       -0.4659983862
 H          7.3879035999       -0.0322742668        0.1994587290
 H          7.0343530622        1.4588418685        0.0176902416
 O          0.6238758311       -3.5446827269       -3.3759765563
 H         -0.2037304546       -4.0293442597       -3.3879037832
 H          0.3910106149       -2.6235261101       -3.5715761043
 O         -2.9996955897       -0.2070285488       -4.7671854502
 H         -3.7700666160        0.1564124775       -4.3053976074
 H         -2.8610325593       -1.0949485613       -4.4229044266
 O         -4.9741652690        0.8494163681       -3.0842044325
 H         -5.9180687731        0.6816425470       -3.0109388819
 H         -4.8738900487        1.8067212220       -2.9205954550
 O         -6.9905981316        0.7960844545       -1.0062695893
 H         -6.1251018158        1.1506870063       -0.7092920524
 H         -7.5568362961        0.8987183759       -0.2189990345
 O          5.7540607518        2.7416609099        0.4745439453
 H          5.7570143025        3.6254330816        0.8401510967
 H          5.5545014151        2.8363738664       -0.4826644701
 O          5.6967146517        2.7337411414       -2.2492939128
 H          6.4847322647        2.1889522242       -2.3148458622
 H          5.0089047110        2.2936051182       -2.7749038791
 O         -4.4242205873        4.4311709675        0.1802516462
 H         -4.6624349576        4.9254469084        0.9638151941
 H         -3.4493861881        4.4181839029        0.1399623580
 O         -6.5496870039       -1.7720621802       -0.9960611657
 H         -7.2172670128       -2.2185697506       -1.5159562567
 H         -6.7768073854       -0.7975067620       -1.0149327708
 O          6.3034159349       -2.8997604949       -1.0252178807
 H          6.4319657402       -2.5912488113       -1.9303847002
 H          5.3373757743       -2.9471315004       -0.9162131035
 O          3.5360700405       -3.1530207563       -2.8911582567
 H          2.9687522781       -3.6304588289       -3.5001652282
 H          4.3496126236       -2.8976356128       -3.3461874716
 O          3.6138333813        1.4893908582       -3.7313647009
 H          2.7572655940        1.9051162938       -3.5185571602
 H          3.6811101641        1.4685052920       -4.6859820907
 O          5.7308352706       -1.5654453579       -3.5019681736
 H          6.4829528941       -1.1395202937       -3.9100882725
 H          5.3834227732       -0.9292441334       -2.8303737170
 O          4.1970720714       -2.7442352673        2.5032694315
 H          4.1053737728       -3.6513119415        2.7965473720
 H          3.3185437382       -2.3264646254        2.5970747816
 O         -4.4386385454       -4.6014016295        0.0320458523
 H         -4.9148544027       -4.1248910749        0.7262126847
 H         -4.9900960450       -4.5707743104       -0.7506797266
 O         -8.0782952053        0.8566163726        1.4502091371
 H         -8.9475215260        0.5198937643        1.6670589672
 H         -7.4506470149        0.4213585724        2.0565147015
 O         -5.4161877837        3.4138888786       -2.3134325808
 H         -5.0125184882        3.9702735810       -1.6365803069
 H         -6.3497389083        3.3520255786       -2.1002443632
