  121

 H          0.0000000000       -0.0000000000       -0.0000000000
 O         -0.7863868419       -0.5814897045       -0.3640508056
 H         -0.5992068371       -1.0627996062       -1.2380067250
 H         -1.1169174854       -1.2514276063        0.3396328462
 O          0.9974616330        0.8816803093        0.6324259394
 H          1.5386086979        1.4304240001        0.0233798316
 H          0.5954865353        1.4786501572        1.2831209430
 O         -1.6945171782       -2.3360922989        1.1855022457
 H         -1.2625818404       -3.1296849750        0.8125320861
 H         -1.6192822892       -2.3861455624        2.1788245580
 O          1.9719200732       -1.5443119097       -0.7112466285
 H          1.6379062451       -1.6182063921        0.2083437168
 H          2.8524439400       -1.1360617104       -0.6227957426
 O         -2.0064458595        1.3133118388        1.0291327262
 H         -2.7768344626        0.8253179698        0.6843240561
 H         -1.5055155848        1.5918722396        0.2388944278
 O         -0.6158658934        0.0234151223        2.9891322742
 H         -1.2034327859        0.5218689348        2.3861835833
 H         -0.0697839746        0.6419749071        3.4864718554
 O          1.2017623658       -1.5104794841        1.8331466806
 H          2.0136135956       -0.9893880901        1.9773568809
 H          0.4821057393       -0.9455877836        2.1922706195
 O         -4.0848491512        0.2321520599       -0.2679059719
 H         -3.7568355769       -0.3574683448       -0.9838820738
 H         -4.4442160197       -0.3832881801        0.3954383600
 O          1.2950175758        0.4344550276       -2.3835187227
 H          1.4685025691       -0.3330397033       -1.7937374140
 H          2.1690854851        0.6835070912       -2.7085974351
 O         -0.7461432159        1.9059729568       -1.3034181242
 H          0.0510341369        1.5043504749       -1.6949728985
 H         -1.4586968898        1.7102464040       -1.9321876802
 O         -0.6622827215       -1.8713206313       -2.5540762015
 H         -0.4235972151       -1.4232835496       -3.3932555329
 H         -0.0210312381       -2.6217757059       -2.4628611270
 O         -0.1917198378        4.1491813890        0.1410093453
 H         -0.2995326740        3.4346388114       -0.5179027700
 H         -1.1071278881        4.4675328841        0.3148258150
 O          2.5239016766        2.4359296527       -0.9013186364
 H          2.0229960242        2.7980465415       -1.6643785616
 H          2.6717379861        3.1892950673       -0.3024939783
 O         -0.4864519544       -4.3298505476       -0.1257722952
 H         -0.0428262473       -4.2186791015       -0.9800503232
 H          0.2488621192       -4.5381453581        0.4832942108
 O          0.2793650322       -0.5280303445       -4.6500022208
 H          0.7133773338       -0.0407638853       -3.9153550023
 H         -0.1561166404        0.1539264610       -5.1692951578
 O         -2.7413627184        1.1655460376       -3.0523836732
 H         -3.4146361346        1.7299880950       -2.6491493821
 H         -3.0353217832        0.2510460871       -2.9461694247
 O         -3.2754035195       -1.4913293084       -2.1304567796
 H         -2.3438455763       -1.6491836348       -2.3748841031
 H         -3.5168975873       -2.3100234872       -1.6629453456
 O          0.0310810469        2.8021123351        2.4072298180
 H         -0.8090021886        2.9363936142        2.8750473619
 H         -0.0358014799        3.3761629598        1.6092979680
 O          2.6364163884        2.6326276291        2.8960932580
 H          3.0321354879        3.3436311163        2.3812131785
 H          1.6718263280        2.7595164028        2.7718971224
 O          3.4351269832        0.1510861699        2.1335012331
 H          3.8548584624       -0.2137608729        2.9160993880
 H          3.1532330814        1.0626280145        2.3507499796
 O          4.0677784443        0.1768548006       -0.4994934781
 H          4.0457110633        0.0857573406        0.4691713576
 H          3.6263292200        1.0271963974       -0.6718849193
 O         -2.6545609728        2.9701918904        2.9908563853
 H         -2.5668376692        2.2775151029        2.2992258810
 H         -3.2271461139        2.5737436061        3.6498657779
 O         -1.5160188000       -2.3785553924        3.7853024389
 H         -0.7163111990       -2.9078278663        3.9563016947
 H         -1.2245249305       -1.4507892203        3.7898760966
 O         -3.5473864564        0.1751041978        3.2961688238
 H         -3.2275404340       -0.3560115479        4.0276124722
 H         -3.9510294503       -0.4575418566        2.6876280141
 O          1.2402550702       -3.6284548557       -2.1827525826
 H          1.6999902748       -3.4462232049       -3.0290139390
 H          1.6767699391       -3.0181192420       -1.5526373177
 O          2.3799870958       -2.3514204589       -4.2295505209
 H          2.9748346330       -1.6668896542       -3.8891830403
 H          1.6764223798       -1.8756930108       -4.6902717263
 O         -4.3429516098       -1.8209458982        1.4116243176
 H         -4.8851903317       -2.6041048268        1.3187520231
 H         -3.4197612912       -2.1078617452        1.2468200984
 O          3.8550237339       -0.1425535356       -3.2039524100
 H          4.5909490772        0.1740681771       -3.7265116182
 H          4.1585746374       -0.1862972965       -2.2827274304
 O          1.8446097762       -4.6985130787        1.2121159424
 H          2.4675252334       -3.9530738163        1.3477464337
 H          2.3001886951       -5.3287108498        0.6533175833
 O          0.9618199209       -3.4811242213        3.6198964600
 H          1.0736090643       -2.8287228364        2.8883625953
 H          1.1241871718       -4.3365893452        3.2145934064
 O          3.7041116569       -2.7991895411        1.7746996461
 H          3.5184300271       -2.4289792290        2.6583585514
 H          4.6342757554       -3.0207134942        1.7553393480
 O          0.9823750731        3.4685223529       -2.8685830324
 H          0.6721241076        2.8672789267       -3.5632860644
 H          0.1844156742        3.9466289653       -2.6016659620
 O         -2.7553763704        4.5222479645        0.6692262905
 H         -3.2263107934        3.8773054863        0.1190358510
 H         -2.8336929518        4.2056615901        1.5829773045
 O         -4.0381640149        2.7505063180       -1.1369758039
 H         -4.1064902436        1.8666502534       -0.7119612240
 H         -4.9319164603        3.0885338018       -1.1988580449
 O          3.0015225169       -1.7257573488        4.2511953086
 H          2.3817401514       -2.4605372613        4.3820560065
 H          2.4799121415       -0.9274953829        4.4346280947
 O          2.4161750113        4.5435111120        0.7785973129
 H          2.7705358769        5.3589466774        0.4265764812
 H          1.4572580717        4.5585637613        0.5909436982
 O         -0.6763452291        2.0865374550       -4.6508624698
 H         -1.4337690713        1.7645298951       -4.1344537281
 H         -0.9641531530        2.9037821268       -5.0588018200
 O         -3.2505016845       -3.8899008614       -0.8050530597
 H         -3.5937789649       -4.6232833560       -1.3144073095
 H         -2.3388477337       -4.1231182738       -0.5750502204
 O          1.6034711410        0.7181493150        4.6401976489
 H          1.4875672432        0.9561494407        5.5601075886
 H          2.1055765683        1.4329413383        4.2220694529
 O         -1.7290604677        4.3798032935       -2.3667661774
 H         -2.4452371537        3.8326417796       -2.0266445980
 H         -1.7960460031        5.2189853088       -1.9083716320
