  251

 H          0.4630927076        1.1941025328        0.8323452958
 C          0.5529035761        0.5095402430       -0.0251092078
 H          0.4633421182        1.0989800596       -0.9466436098
 C         -0.5779259335       -0.5149488603        0.0205351875
 H         -0.4518492549       -1.1270258237        0.9278134320
 H         -0.4840892691       -1.1748678656       -0.8448928486
 N         -1.8603253885        0.1647702475       -0.0623309409
 H         -2.6131021662       -0.5138473280       -0.0751527665
 H         -1.9956541839        0.7570092262        0.7508171932
 O          1.7808081027       -0.1833448059        0.0209869107
 H          2.5006908393        0.4507195084       -0.0567171281
 O         -1.4298152473        1.8185566136       -2.1648943841
 H         -2.2554265390        2.0316482148       -2.6340631229
 H         -1.6696872441        1.2513723104       -1.3804428074
 O         -1.9585725423        3.1685967484        0.4864269556
 H         -2.1017632904        3.3699681187        1.4307855490
 H         -1.1028233613        3.5875628830        0.2565880246
 O         -4.2846332635        1.7387988739        0.5439721237
 H         -4.8490136277        2.5380885659        0.5924474185
 H         -3.3827294845        2.0766476871        0.4809153318
 O         -4.4596188463       -1.3178220747        0.4338069142
 H         -5.0109415217       -0.5361732570        0.5708160897
 H         -4.6273754460       -1.9119612017        1.1914676177
 O          1.6133963856        3.6201264060        2.0536905191
 H          1.0586292061        4.0913665971        1.4073270865
 H          1.0183392319        3.2972773171        2.7540721760
 O         -0.8581169597        0.3454465636        4.7870513105
 H         -1.5138432089        0.4123206419        4.0523184617
 H         -0.2358246536       -0.3367462582        4.5051555449
 O          0.2575817510        4.5275999442       -0.0988777631
 H         -0.2591663608        5.2761226120       -0.4589803487
 H          0.5979023857        4.0712309678       -0.8961392993
 O         -2.3257536995       -2.3833620418        2.3936117860
 H         -3.1461380387       -2.7149543752        2.7711039854
 H         -2.3805918812       -2.5413802573        1.4147824909
 O          3.0411059785        2.3758428328        0.0808942500
 H          2.4818084365        2.7775957590        0.7665235235
 H          3.6797724023        1.8289890390        0.5764990397
 O         -2.5796897825        0.3537557363        2.7895249733
 H         -3.5468204804        0.5233744131        2.8923900036
 H         -2.5049156139       -0.5980578619        2.5929703959
 O          0.7737172386        3.3572032682       -2.4559746983
 H          1.5430871605        2.7491567540       -2.5217175891
 H         -0.0226668615        2.8052249665       -2.3166805045
 O          2.9613875846        1.8584637418       -2.7827967922
 H          3.2432740538        1.2447018936       -3.5011982350
 H          3.2309898039        1.4264851612       -1.9594849479
 O         -4.7187921074        0.5468669114       -1.7387748080
 H         -4.5636285311        0.9587415657       -0.8526715870
 H         -4.1217401614       -0.2285131466       -1.8090295244
 O          1.4486274395       -2.2140305153       -1.9522455301
 H          1.6342048980       -1.3472084399       -1.5670087511
 H          1.3988649306       -2.0861113528       -2.9173477504
 O          0.4595904892        0.1749258342       -3.1795065948
 H          0.8613003684        0.4368438932       -4.0305135450
 H         -0.2281890268        0.8235592700       -2.9503448619
 O         -3.1833738279       -1.5945930746       -2.1542750514
 H         -2.4283230773       -1.5055446192       -2.7825827506
 H         -2.8569790861       -2.1120496664       -1.3913015707
 O         -2.3496032108       -3.1239056536       -0.1165779715
 H         -3.0486279170       -3.8117958434       -0.0848298581
 H         -1.4938596013       -3.5747134513       -0.2828373504
 O         -7.0602234296       -0.6045820322       -2.2815202450
 H         -6.8433678592       -1.4838039952       -1.9253775147
 H         -6.3183266819       -0.0272328375       -2.0005053085
 O          4.0255290955        0.5289377690        1.7302244924
 H          3.2574572392        0.4307075748        2.3277230865
 H          4.7371559890        0.8953283362        2.2946379007
 O          0.0848364561       -4.1790261163       -0.4168626785
 H          0.7021942930       -3.5856906436        0.0644651829
 H          0.1158818976       -3.9070923014       -1.3546203473
 O          1.5948755559       -2.6201046272        1.1726080236
 H          1.6010900031       -1.7695380628        0.6937132780
 H          2.5400467466       -2.7538452226        1.3950192726
 O          4.1507242315       -2.1939615587        1.6212617198
 H          4.1763175828       -1.2267046272        1.4798444610
 H          4.7030933626       -2.6139880922        0.9359111880
 O          3.4111432611       -3.9622848461       -2.0102086855
 H          3.0278053036       -4.8307473478       -1.7612930854
 H          2.6620163124       -3.3256163328       -1.9088260070
 O          2.2497516994        0.0907619974        3.6637332464
 H          2.9184240711       -0.5339422175        4.0411113511
 H          1.4877365725       -0.4590288614        3.4399644881
 O          0.2331110991       -1.7974774558        3.3054554794
 H          0.7435811449       -2.2165274268        2.5695958875
 H         -0.6923925782       -2.0283637738        3.1377067507
 O         -5.9618866314       -2.8717011529       -1.1452165729
 H         -5.6078213460       -3.1063427645       -2.0382837960
 H         -5.3006330415       -2.2644952173       -0.7314937955
 O          5.7002607063        1.7836578516        3.4076024523
 H          5.8712575640        2.4663305001        2.7216091185
 H          4.9632008651        2.1304691363        3.9454385529
 O          6.0252573683        2.2086595368       -1.1121588612
 H          5.3506817379        1.5022605384       -1.1181227871
 H          5.7728731032        2.8162200495       -1.8390235923
 O          4.2975299757        0.1046091380       -1.0910553321
 H          4.8904746771       -0.1698813491       -0.3689287658
 H          4.3819520468       -0.5719794426       -1.7905052802
 O          4.7241260444       -1.7854222018       -2.9951287785
 H          5.6282900905       -1.8678230071       -2.6133864967
 H          4.2897975228       -2.6377538002       -2.8446780363
 O         -6.6732172511        0.3658273308        0.8405940915
 H         -7.3297972826        0.7237114719        1.4788313641
 H         -6.7199601665        1.0006945049        0.0902986541
 O          3.2479766948        2.5831221685        4.2879775409
 H          2.8107840184        1.7213132024        4.1890529460
 H          2.9548004731        3.1182535831        3.5433025782
 O          6.9821413902       -1.8269265962       -1.5927917128
 H          6.8195937587       -1.3787518784       -0.7356530909
 H          7.4866085439       -1.1549758535       -2.0865512937
 O         -5.1431034037        0.8789840299        3.0807874333
 H         -5.5303216750        0.7485326857        2.1955033608
 H         -5.1730986012        1.8553151899        3.2266390183
 O          4.0025716056       -1.8017414850        4.2861852182
 H          4.0395951582       -2.1558985240        3.3786718242
 H          3.3464210410       -2.3626911182        4.7610848798
 O         -5.1059726642        3.5111098956        3.1745270478
 H         -4.1561763811        3.6701673736        3.2650579988
 H         -5.3581814502        3.8624207958        2.3051183789
 O         -2.2922845188        3.1682855890        3.1486277203
 H         -1.4711303167        3.2869611793        3.6476635072
 H         -2.4173559814        2.2101030266        3.0861795929
 O          1.5261244966        0.6487395923       -5.5958603008
 H          2.4898708886        0.6524303458       -5.4791218776
 H          1.2428045514        1.5774044848       -5.6583809853
 O         -5.5755754354        4.0840086043        0.4807437088
 H         -4.9736006961        4.4654765401       -0.1783701859
 H         -6.2862076453        3.6395244691       -0.0286984664
 O         -3.5236728669        4.3256688327       -1.3834880055
 H         -2.9673934141        3.8324689295       -0.7410353969
 H         -3.6681364955        3.7444885651       -2.1395601890
 O         -4.4533862627       -4.7527177454        0.1027818552
 H         -4.6532439258       -4.6945265755        1.0419838475
 H         -5.1419343102       -4.2202047751       -0.3473722893
 O          6.3611940917       -0.4130459036        0.6167475974
 H          6.9743302522        0.3412327434        0.6552826445
 H          6.3260354992       -0.7361176952        1.5356948198
 O          7.9033071254        0.6133601557       -2.3234315599
 H          8.6635337324        0.4277530846       -1.7418726500
 H          7.3360048973        1.2178634463       -1.8059233311
 O         -5.2299866149       -3.0040549578        2.3814684008
 H         -6.1263883169       -2.9354993886        2.0037045474
 H         -5.2853786048       -2.5026051005        3.2283534676
 O         -7.4907490302       -2.1903320796        1.0373059159
 H         -7.2492881775       -2.6390618745        0.2158773006
 H         -7.1999519199       -1.2576814388        0.9177542799
 O          3.3120633467        4.7211947195       -1.2469871118
 H          2.4742972111        4.8737125898       -1.6876891896
 H          3.2632988745        3.8143454624       -0.8754537987
 O          0.2143514694        2.7568993193        4.2542656751
 H         -0.0893275993        1.8568761446        4.5139486061
 H          0.8729179744        3.0120826176        4.9048688112
 O          4.9859276917        3.6286043397       -3.1155830647
 H          4.6726509157        4.4055291943       -2.6325384362
 H          4.2044218443        3.0356096520       -3.1450888840
 O          4.0601623604        0.2961718388       -4.6151474491
 H          4.9231013827        0.7611809427       -4.7174036117
 H          4.2801464654       -0.5176509416       -4.1305038618
 O          6.3915377186        1.5551820598       -4.5006483108
 H          7.0321474090        1.1746971260       -3.8801968202
 H          6.1605470002        2.4281598863       -4.1602714251
 O          6.4884381294       -0.8583102140        3.3216568700
 H          5.7860269815       -1.3023628348        3.8182524016
 H          6.3625100068        0.0859388557        3.5111782101
 O          5.9965713689        3.4035142146        1.3143308391
 H          5.9235524642        3.0408572319        0.4073715701
 H          5.3432210834        4.1295419741        1.3798761052
 O          8.0766007017        1.6035933703        1.4719901280
 H          8.1339377120        1.4418928538        2.4156987872
 H          7.5661062315        2.4191468206        1.3610075579
 O         -3.7941636535        2.2433701989       -3.4382274513
 H         -3.5667462225        1.6623912874       -4.1814018324
 H         -4.2010644039        1.6177617137       -2.7723347570
 O         -7.0819753960        2.3633954531       -0.8635073591
 H         -8.0312552498        2.3938717916       -0.5939648906
 H         -7.0443860928        2.4024644059       -1.8365784999
 O          3.9531743425        5.1648733439        1.4116329276
 H          3.1516016004        4.7701744632        1.7765550083
 H          3.7803047210        5.2884995725        0.4647250296
 O         -1.3743622393        5.9939219119       -1.6146265561
 H         -2.2445720892        5.5554005318       -1.5399293854
 H         -1.0819261068        5.8633930062       -2.5175910586
 O          9.4874959078       -0.0935774654       -0.2282226173
 H          9.2938499315       -0.8827295222        0.2991249545
 H          9.2628186552        0.6473889069        0.3489964102
 O         -3.1981609990        0.1004751062       -5.0416070528
 H         -3.1515609689        0.0078986251       -5.9927820401
 H         -2.5296824866       -0.5164276817       -4.6808179312
 O         -8.2720413479        1.3334044681        2.7356253976
 H         -8.3383588124        0.4708843769        3.2050527244
 H         -7.8204988339        1.9421985081        3.3234491045
 O          5.3578509235       -3.6624682691       -0.2631871771
 H          4.6521010089       -3.7750322294       -0.9504537729
 H          6.1199091168       -3.3030448513       -0.7334322135
 O          2.1448930242       -6.0001490946       -0.8462148094
 H          2.6468511074       -5.9280036756       -0.0202360053
 H          1.2943184907       -5.5660192823       -0.6724560740
 O         -1.3200796451       -1.5508209713       -3.9772252814
 H         -0.5704887145       -0.9735156345       -3.6798669665
 H         -1.0124208217       -2.4633651945       -3.8301955828
 O         -0.6928410279       -4.0148712418       -3.0292474340
 H         -0.1732793809       -4.6038168445       -3.5761541710
 H         -1.5374943853       -4.4749861015       -2.8291349410
 O          3.7093927159       -5.2277844712        1.3287564845
 H          4.3501924049       -4.7022158380        0.8237455238
 H          4.2168081074       -5.7471495645        1.9515906021
 O          1.8683621988       -3.1238260598        5.1293389980
 H          1.1868593943       -2.5953900492        4.6893071998
 H          1.8821775773       -3.9550708592        4.6124219057
 O          1.6771713147       -5.0626814428        3.3000546201
 H          0.7631924295       -5.0843799511        2.9663177120
 H          2.2535033491       -5.0186363443        2.5276600712
 O         -0.8272834761       -4.8613333354        2.1826342259
 H         -1.3022040608       -4.0390652989        2.3581426733
 H         -0.5773469191       -4.8471301245        1.2509272589
 O         -9.4673285386        2.0781691943        0.2131334425
 H         -9.2937597419        1.9754776533        1.1567956937
 H         -9.6232405435        1.1755586609       -0.1262472706
 O          8.5431423745       -2.0178070909        1.6678408011
 H          8.0029748026       -1.6552094368        2.3834466544
 H          8.0963185453       -2.8062869528        1.3564884385
 O         -9.3242907891       -0.4833456954       -0.6745977305
 H         -9.0931138112       -1.1742825878       -0.0465892370
 H         -8.6177549045       -0.4563054936       -1.3442231894
 O         -5.3485023693       -1.3949317807        4.4787887552
 H         -4.5092032089       -1.5185132043        4.9491085762
 H         -5.2929155307       -0.5028526680        4.0805521058
 O         -2.7242569092       -1.6905362563        5.2894682806
 H         -2.2624171200       -2.4365240939        5.6717251029
 H         -2.1380802371       -0.9209866935        5.3770455134
 O         -3.0613765564       -5.1572734801       -2.4849302800
 H         -3.7292050138       -4.6616526194       -2.9843955052
 H         -3.4557380786       -5.3553022533       -1.6296015504
 O         -8.0723129343       -1.1566674092        3.6786621618
 H         -7.2373145811       -1.3281005170        4.1342446053
 H         -8.0762446924       -1.7009975594        2.8826411659
 O         -4.7780521276       -3.2337292555       -3.4615659878
 H         -5.2398699622       -2.6871746098       -4.1269002441
 H         -4.1015858997       -2.6222799470       -3.0810147714
 O         -5.7864879436       -1.0687283490       -4.6974954976
 H         -4.9660016443       -0.5551148229       -4.6692815055
 H         -6.3209733723       -0.8243335998       -3.9201246933
 O          1.7045561594       -2.0720792385       -4.6804803311
 H          2.6461485190       -2.2033649324       -4.8044438293
 H          1.4841869076       -1.2489888247       -5.1355068789
 O          0.4019911420        3.1149802193       -5.1609631708
 H         -0.5492273380        3.1626262121       -5.2587868002
 H          0.6026164404        3.3468250944       -4.2337722179
 O         -6.6525199676        2.3814226014       -3.5508232658
 H         -5.6993701579        2.4950668219       -3.6794825024
 H         -6.9046582074        1.5486796618       -3.9554652460
