  192

 H         -0.5425054116       -1.1597996572        0.9180873584
 C         -0.6112510058       -0.5412956721        0.0100749231
 H         -0.5391308398       -1.1969144468       -0.8712436654
 C          0.5103658651        0.5037878340       -0.0094871831
 H          0.3911098460        1.1518924068        0.8600966292
 H          0.3944399220        1.1152669963       -0.9056411655
 O         -1.7891825171        0.2100258086       -0.0077307061
 H         -2.5646581756       -0.3620747644        0.0026734582
 N          1.8637421193       -0.1172780960        0.0059475199
 H          1.9871272124       -0.7237037765       -0.8163106256
 H          1.9839787968       -0.6890763200        0.8531041574
 H          2.5930828887        0.6072400308       -0.0077051405
 O          3.0233521974        2.2982001888       -0.1087002042
 H          3.5765784829        2.5681912379       -0.8716212481
 H          2.3575772409        3.0074567477       -0.0081571762
 O          2.3481028578       -1.4910821626        2.2703397812
 H          2.3326502721       -0.7352978477        2.9011698375
 H          1.5628554809       -2.0529419046        2.4938320740
 O          0.2128097841       -3.8336355431        0.2273463924
 H          0.1666536226       -3.4534275604       -0.6741134509
 H          1.0284087799       -4.3807060426        0.2422284857
 O         -1.8354496689       -1.6085198500        3.5838532660
 H         -1.3218858736       -0.8710845359        3.9503235720
 H         -2.6738747424       -1.2036214501        3.2899314065
 O         -3.5574481342       -1.7664942794        0.0481511016
 H         -4.4210710496       -1.3562666343        0.2904062752
 H         -3.3798243727       -2.4070288777        0.7685086305
 O         -1.1467565170        3.8568740953        0.3998202853
 H         -2.0693695242        4.1290715846        0.2610530536
 H         -1.1851608341        3.1550331735        1.0873534557
 O          3.9799556045       -2.8283512616        0.4418361330
 H          4.8979807847       -2.5694167518        0.6351364397
 H          3.4254620685       -2.3814389810        1.0989216254
 O         -1.6831908552        1.8414207312        2.0510958322
 H         -2.5151002411        2.0110008851        2.5314870201
 H         -1.8732902924        1.2252783926        1.3120149022
 O          3.9069303247        1.9853225911        2.3528600228
 H          3.1445305988        1.6524414935        2.8580639020
 H          3.6230961000        2.0221613964        1.4064771513
 O         -0.4312355807        0.7011024315        4.0919602480
 H         -0.6299143900        1.3487535822        4.7738179672
 H         -0.7964135302        1.1067094325        3.2640010361
 O         -4.3015623450        1.3622588361        0.7439836713
 H         -4.1698104815        0.8961811197       -0.1162139919
 H         -5.2632511595        1.4581815090        0.8009159656
 O         -4.1638977900        0.3867061403       -1.6722821310
 H         -3.6061977483       -0.3293060793       -2.0457775835
 H         -3.8893367526        1.2135586492       -2.1175537197
 O         -2.7647887570       -1.4402100806       -3.0029099291
 H         -1.8898544981       -1.0347038178       -3.0871240060
 H         -2.6398186275       -2.3694371518       -2.7807179882
 O          0.0828285663       -3.1437011753       -2.3593276698
 H          0.7801669888       -3.8175314136       -2.5433136998
 H         -0.7776563156       -3.5497954081       -2.5665389787
 O          4.5350453529        0.0767392559       -0.5686289255
 H          5.0841836427       -0.6452744679       -0.2248114090
 H          5.0987660487        0.8756357851       -0.4886493355
 O          1.9453864108       -1.2337714232       -2.4037918317
 H          1.1748307692       -1.7998230136       -2.5759422516
 H          1.8427719458       -0.4088790396       -2.9161756409
 O         -4.0752206164       -0.3068455100        2.8658905220
 H         -4.9978942533       -0.5359653947        3.0356506950
 H         -4.0998706954        0.2099759715        2.0354583224
 O         -6.3341703569       -0.9429840976       -2.5484626997
 H         -5.6514275727       -0.3651773072       -2.1514748682
 H         -5.9368346542       -1.8293755989       -2.4928323790
 O         -2.2254776603       -4.9905069600        0.0063855191
 H         -1.3134381909       -4.6984362987        0.1959386236
 H         -2.7690488682       -4.6141380871        0.7158569114
 O          1.8509167166        1.1516413851       -3.6565209684
 H          1.7621018612        2.0414174689       -3.2694430688
 H          2.8037352113        1.0183608065       -3.7860254952
 O          4.4468458471        0.5301646444       -3.2026167306
 H          5.1873119429        0.0141432952       -3.5400959506
 H          4.3772226604        0.2694601266       -2.2538587390
 O          4.1398696603       -2.7508079852       -2.2854007317
 H          3.4139650183       -2.1232746544       -2.4784365011
 H          4.1472792225       -2.8167567837       -1.3141085031
 O          4.4499807520        3.0737203131       -2.2817219757
 H          4.5002939261        2.2405506806       -2.7882885522
 H          5.2817055913        3.1047873395       -1.7880863348
 O         -6.9578129238        1.6030004854       -0.2182646130
 H         -6.9143841819        2.4991107239        0.1543746111
 H         -6.8343091901        1.7236101100       -1.1816350982
 O         -0.8931104197        2.7833937781       -2.0429981389
 H         -0.9454905080        3.1386139013       -1.1254523690
 H         -0.1573206671        3.2430293907       -2.4647039991
 O          6.3136469456       -1.5673164127        0.7692525920
 H          6.1990491564       -0.9846040395        1.5485200176
 H          7.0109335581       -1.1653894014        0.2256128346
 O         -3.3733812801       -3.5118509770        2.0525256441
 H         -4.3156488337       -3.4529505746        2.3374490818
 H         -2.8498056686       -3.1914493060        2.7932544697
 O         -4.9735999265       -3.1904800441       -1.7476219958
 H         -4.3915840926       -2.6740965607       -1.1417070062
 H         -4.3736728958       -3.7575715385       -2.2408527447
 O          7.7667132383       -0.2254888123       -1.1121159976
 H          7.2536773367       -0.6152300624       -1.8497359829
 H          8.6888510173       -0.2529341735       -1.3664424451
 O         -0.7487232869        0.3872584604       -3.3768034228
 H          0.1132519823        0.5663218004       -3.7754022454
 H         -0.9051942069        1.1350604998       -2.7736723139
 O          6.2648301607        2.1322571088       -0.5036347792
 H          7.0475322213        1.5678029583       -0.5151618982
 H          6.3086525544        2.6750273834        0.3134814227
 O          0.2786932646       -3.0100520326        2.7420532731
 H          0.0833914545       -3.3183016106        1.8345191092
 H         -0.5303152792       -2.5813798480        3.0823632763
 O          5.7170202411        0.0026970534        2.8599083349
 H          5.0316849048        0.6783302982        2.6880240346
 H          5.3014780018       -0.7009657815        3.3948582824
 O         -5.9466078889       -0.8931464083        0.6041661636
 H         -6.4159576638       -0.2009403371        0.1247833009
 H         -6.4240865885       -1.7316640043        0.4588415363
 O         -3.8105790026        3.7851692127       -0.1986987900
 H         -3.8593856779        3.6619910359       -1.1540025126
 H         -3.8403461412        2.8756034940        0.1886920203
 O         -3.5597372177        2.1149135514        3.9554129140
 H         -3.6433604098        1.1455688870        3.9188671161
 H         -4.4770760763        2.4204156699        3.8016578159
 O         -7.0013728982       -3.3389744229        0.0778860925
 H         -6.3369942789       -3.5250258360       -0.6091017375
 H         -7.7752699999       -2.9790063315       -0.3781585877
 O          1.7470923492        3.7064464448       -2.5987596355
 H          2.6939772044        3.7965757067       -2.7683622618
 H          1.6234702402        4.1127329977       -1.7243994789
 O          6.3492839129       -1.4918750252       -3.0750512056
 H          6.8302031799       -2.0886007817       -3.6479309491
 H          5.5577501254       -1.9964190859       -2.7579745905
 O         -5.9414813175       -3.1323664340        2.6607926846
 H         -6.2342433762       -2.2200185448        2.8034249927
 H         -6.4083355899       -3.4376127736        1.8706911033
 O         -8.5327462227       -1.4282447583       -1.1498877818
 H         -7.7440544748       -1.1741024681       -1.6940515935
 H         -9.2957883097       -1.3155713931       -1.7145871200
 O         -2.4213734283       -4.2370126185       -2.4635414226
 H         -2.4037914254       -4.5176746423       -1.4986261020
 H         -2.4163503466       -5.0476078550       -2.9723209021
 O          1.4729076013        4.4801842692        0.0193192898
 H          1.9752542615        4.7916627723        0.7899976687
 H          0.5484334131        4.3633343414        0.2951189444
 O          2.1787341484       -4.7613359131       -2.4740623548
 H          2.9630586599       -4.2000431441       -2.5909140659
 H          2.2904325783       -5.1890100902       -1.6153820318
 O         -3.4793237471        2.6806206094       -2.8873124720
 H         -2.5497332095        2.8348404110       -2.6252156051
 H         -3.4062595067        2.1999667664       -3.7417451651
 O          2.5595365065       -5.1216114697        0.3213878486
 H          2.5854537333       -5.4283712544        1.2344316284
 H          3.1691290519       -4.3585242405        0.3154386488
 O         -3.0813920790        0.8503548928       -4.7715855263
 H         -3.5484066186        0.0235103971       -4.6201098863
 H         -2.1651688814        0.6729322373       -4.4906391389
 O         -6.2447769621        3.9228479019        0.9282116909
 H         -5.3457314229        4.0385347533        0.5473465811
 H         -6.6785938574        4.7722161820        0.8876117215
 O         -6.1239845422        2.3449851526        3.2802579038
 H         -6.4359001905        1.4386342931        3.1362512301
 H         -6.2996075433        2.8617931984        2.4831871009
 O         -6.3741631849        2.0808257054       -2.8044440066
 H         -5.4956356591        2.4407080669       -2.9726140965
 H         -6.4570234995        1.2732331419       -3.3192623934
 O          2.1950812260        0.5446292046        3.9346249520
 H          2.4774238291        0.3978583062        4.8376025901
 H          1.2146965387        0.6948570293        3.9502592026
 O          0.9425114095        2.8133829762        2.5224352444
 H          1.5259002443        3.5722819549        2.5924276492
 H          0.2048937602        2.9897125013        3.1233936398
 O          4.5162383341       -2.2125209536        3.8427478755
 H          5.0195260352       -2.9898720271        3.5960161474
 H          3.7148081490       -2.2179363476        3.2895495379
 O          3.1956939099        4.6685094842        2.1742799073
 H          3.9640990626        5.2083067311        1.9831150142
 H          3.5448479821        3.7697734621        2.3232713331
 O          6.2719111319        3.4146345164        1.8549900940
 H          7.0698881051        2.9220328603        2.1015621221
 H          5.5352340366        2.9307522646        2.2514806651
 O         -1.1580996094        3.4021065793        4.3860366831
 H         -1.2791253719        4.3438695414        4.2696319096
 H         -2.0492382917        3.0111471414        4.3382255833
 O          2.6377833273       -4.4097685040        3.0288761308
 H          2.8940515960       -4.4384154841        3.9500564932
 H          1.7250952738       -4.0822571307        3.0164701540
 O          8.0002856690        1.3159972482        2.1345527394
 H          8.7914833269        1.0356377714        2.5923808744
 H          7.2663588435        0.7814891534        2.4836506485
 O         -6.8847957432       -0.4367307416        3.1678797290
 H         -7.5405286613       -0.3455158452        2.4274166764
 H         -7.3967674455       -0.5270822851        3.9718547568
 O         -8.6492499697       -0.0099036672        1.2380240953
 H         -8.2582363633        0.7431097352        0.7675435142
 H         -8.7686140702       -0.6829816486        0.5490638090
