  131

 H          0.4630927076        1.1941025328        0.8323452958
 C          0.5529035761        0.5095402430       -0.0251092078
 H          0.4633421182        1.0989800596       -0.9466436099
 C         -0.5779259333       -0.5149488604        0.0205351876
 H         -0.4518492549       -1.1270258237        0.9278134320
 H         -0.4840892692       -1.1748678656       -0.8448928489
 N         -1.8603253885        0.1647702475       -0.0623309409
 H         -2.6131021663       -0.5138473280       -0.0751527666
 H         -1.9956541841        0.7570092261        0.7508171930
 O          1.7808081027       -0.1833448059        0.0209869107
 H          2.5006908391        0.4507195084       -0.0567171281
 O          0.0859034698       -0.0093881253       -3.4667676096
 H         -0.1073616044       -0.9398693467       -3.3122111754
 H         -0.7403933499        0.4663352706       -3.2695827628
 O          5.5435071479       -0.0025804096       -0.6708549561
 H          5.1375466397       -0.3093952307       -1.5101978903
 H          5.0901164285       -0.5109517066        0.0379510506
 O          4.0286403750       -0.6867061575       -2.7828288253
 H          3.3107265168       -1.2976755967       -2.5505780875
 H          3.5883014418        0.1275612788       -3.0593999987
 O          1.9982063298       -2.2376361597       -1.6915253929
 H          1.8548480396       -1.4299445230       -1.1514954850
 H          2.1167089280       -2.9516523399       -1.0218398377
 O          2.2512408774        1.5583219077       -2.8965009469
 H          1.5206016137        0.9572372928       -3.1398493141
 H          1.8322122224        2.4299691179       -2.7932492608
 O         -0.3810488362       -2.8164692309       -2.6240660227
 H          0.5510241014       -2.6201318119       -2.3298158639
 H         -0.3094830282       -3.4300689483       -3.3561386609
 O          1.9325855966       -1.9065827200        2.1130445509
 H          1.9937394162       -1.2941399110        2.8856705353
 H          1.7842511023       -1.3020515807        1.3567763650
 O          2.0770405804       -3.9816799112        0.3173009328
 H          2.1471392757       -3.4043393300        1.0931314718
 H          1.1309777889       -4.2123834808        0.2645781079
 O          3.4985703343        1.7502164184       -0.4939663753
 H          4.3676984340        1.3109745866       -0.5687715032
 H          3.1320398836        1.7969979967       -1.3984153744
 O          2.9491815512        3.1475067918        1.8105883226
 H          3.0968438262        2.7642884528        0.9284662465
 H          3.5334910381        2.6145606445        2.3851647101
 O          0.6736213597        2.0648288923        2.7043124139
 H          0.1703039999        2.3115617455        3.5127603056
 H          1.4439391518        2.6554850573        2.5678107740
 O          1.9896469003        0.0527986020        3.8819794159
 H          2.8824301213        0.4049131379        3.9831207701
 H          1.4968166622        0.7464321450        3.3842491804
 O         -0.6449155924       -0.7381786854        4.6432110713
 H          0.2816037646       -0.4628561942        4.6053330046
 H         -0.6466694219       -1.6378583702        4.2809907419
 O         -0.6409373354       -4.0046560546        0.0250736788
 H         -0.7015990837       -3.7019160310       -0.8905158466
 H         -1.3761328212       -3.5848706421        0.4990142369
 O          4.4731809592       -1.0006626249        1.5564838612
 H          5.3216826321       -1.3232802734        1.9592449109
 H          3.7847651901       -1.6459321980        1.7615362228
 O         -0.4923916145       -2.8773807971        2.9258387359
 H         -0.6441540777       -3.7905335346        2.6822071809
 H          0.3989573232       -2.6395015733        2.6067429704
 O         -2.9168276121       -2.6301536130        0.9750472328
 H         -3.8609054007       -2.8022082140        1.1016011535
 H         -2.6928073233       -1.9679270266        1.6507363159
 O         -2.7109522815       -0.4145434658        2.7840381917
 H         -2.0718922687       -0.5982256429        3.4898376979
 H         -2.7286130599        0.5600550531        2.7031251144
 O         -2.2006257434        1.1151992147       -2.5160058690
 H         -2.1120753954        0.7309525408       -1.5974642841
 H         -3.1437946174        1.0737417443       -2.7518819047
 O         -3.1088466418       -2.4950084524       -1.8272567199
 H         -2.2291381659       -2.4947794936       -2.2236722231
 H         -2.9944666653       -2.7716339968       -0.9028055106
 O          4.4444005339        1.2407045835        3.0316048296
 H          5.3697577173        1.4944436527        2.9633909792
 H          4.3739269311        0.4588622275        2.4390099177
 O          0.9722325697        3.9107279761       -2.1958309249
 H          1.0487535768        4.6532167841       -2.7944373407
 H          0.0003982304        3.7912800213       -2.0330081100
 O         -1.5839956285        3.5229653113       -1.6132424749
 H         -1.4384355027        3.3963510801       -0.6548245558
 H         -1.7485358480        2.6335332730       -2.0039804674
 O         -0.9746881869        3.4480199358        1.0352214812
 H         -0.4177199979        2.8458866760        1.5660671574
 H         -0.3805010486        4.2125315018        0.8780409077
 O          1.1680877859        4.9275908680        0.4366093490
 H          1.8700907634        4.5366667185        0.9715723122
 H          1.2857670722        4.5838753258       -0.4638213614
 O         -2.9543258697        2.2714487205        2.4919185219
 H         -2.3615202453        2.8624095936        1.9958653041
 H         -3.7874710011        2.2501784135        1.9838456582
 O         -4.9554160957        1.8007286674        0.7280631446
 H         -4.7431581767        2.4983649227        0.0635772559
 H         -4.6367276542        0.9710814330        0.3334391576
 O          6.9292786991        1.2087290347        1.5105560246
 H          7.6971145933        1.7038098700        1.2247936724
 H          6.4949816954        0.8851464973        0.7062241775
 O         -5.7084090759       -2.2986305401        1.0315462523
 H         -6.5351419681       -2.2675644601        0.5314128071
 H         -5.7922349090       -1.6681607572        1.7828232452
 O         -5.4642573251       -0.3219101499        2.7909852018
 H         -5.5675769361        0.5291061206        2.3534400286
 H         -4.5065295744       -0.4297864918        2.9410197467
 O         -4.5494569063       -0.5564488034       -0.6197325319
 H         -4.0942103389       -1.1574407064       -1.2372146332
 H         -5.0420284631       -1.1626592806       -0.0216287600
 O         -4.3507140970        3.3919641109       -1.3123442384
 H         -3.4264329971        3.6665525388       -1.4424140202
 H         -4.5744583260        2.8218624726       -2.0585934236
 O          6.8930875221       -1.4952035072        2.4080268897
 H          7.2236743165       -1.8694863561        1.5627242140
 H          7.1457705601       -0.5621400386        2.3895433069
 O          7.3007937440       -2.1608758930       -0.1664785774
 H          6.5640157816       -2.7784312675       -0.2794824230
 H          6.9727924440       -1.3264463275       -0.5333910678
 O          4.7393738694       -3.1912078911       -0.5945199856
 H          4.0239706787       -3.7354733282       -0.2491548399
 H          4.4907330528       -2.9275175284       -1.4838476433
 O         -7.4197722617       -1.4627490114       -0.9944433396
 H         -8.3314895408       -1.6314768080       -1.2304468474
 H         -7.3481934588       -0.4839394422       -0.8797792560
 O         -1.1077151952        2.1526356534        4.6519768129
 H         -1.1052942792        1.2153961762        4.8856476328
 H         -1.9061349263        2.3016123491        4.1273163999
 O         -4.9654616362        1.0160514811       -2.7449249944
 H         -4.9260595809        0.5370700626       -1.8911874326
 H         -5.2569587823        0.3235099962       -3.3576008428
 O         -7.2004636536        1.1932034929       -0.8022016289
 H         -6.5998993379        1.4927592120       -0.0975593826
 H         -6.8049486448        1.4933883695       -1.6285466046
 O         -5.6496251768       -1.6064951838       -3.2006230736
 H         -6.2734112228       -1.6765458127       -2.4578422329
 H         -4.8991874654       -2.1643132959       -2.9725001750
