  131

 H          0.4630927076        1.1941025328        0.8323452958
 C          0.5529035761        0.5095402430       -0.0251092077
 H          0.4633421182        1.0989800596       -0.9466436098
 C         -0.5779259333       -0.5149488605        0.0205351874
 H         -0.4518492549       -1.1270258237        0.9278134323
 H         -0.4840892691       -1.1748678657       -0.8448928486
 N         -1.8603253886        0.1647702476       -0.0623309409
 H         -2.6131021664       -0.5138473280       -0.0751527666
 H         -1.9956541839        0.7570092262        0.7508171932
 O          1.7808081027       -0.1833448059        0.0209869107
 H          2.5006908393        0.4507195084       -0.0567171280
 O          4.9518640511        1.3851080114       -2.5291019946
 H          5.0456285726        1.6064647225       -3.4554624342
 H          4.7152011989        0.4253046759       -2.4946075177
 O          4.2799812624       -1.2054590444       -2.4801852940
 H          4.2940641987       -1.7689986034       -1.6838747863
 H          3.3501640054       -1.2504390379       -2.7633390183
 O         -1.8308357720        1.1209643636       -2.5314429730
 H         -1.8139416607        0.8210113448       -1.5718987171
 H         -2.7610582960        1.0231931934       -2.7875072187
 O         -1.0938157617       -1.4556861891       -3.2890470625
 H         -1.3851416298       -0.5443010909       -3.1163892827
 H         -0.1290576698       -1.4624553069       -3.1894058574
 O         -1.6926389132       -3.6687395609       -1.8316409632
 H         -1.5181350559       -2.8649039968       -2.3616004578
 H         -2.5583762025       -3.9699156918       -2.1502640024
 O          1.5656265461       -1.4219960694       -2.4271696504
 H          1.6675160868       -0.9463492225       -1.5789880403
 H          1.4417586473       -2.3550038863       -2.1347301410
 O          1.0536899281       -3.7679135984       -1.2588685301
 H          0.9339581463       -3.7562356966       -0.2865926291
 H          0.1794700464       -4.0114854975       -1.5951844539
 O          2.5827058782        2.1659809648       -1.4566208490
 H          3.4850000018        1.9958055338       -1.7792516202
 H          1.9923849699        1.9999838115       -2.2139131821
 O          0.9011151489        1.2545823438       -3.3930893292
 H         -0.0563723920        1.3178926498       -3.2710965245
 H          1.1252084880        0.3163289726       -3.3533841794
 O          2.1076627472        3.4456646676        0.8098615829
 H          1.9538473054        2.7573245326        1.4857391980
 H          2.2231139554        2.9847411530       -0.0511225894
 O         -4.5175635818        0.5335370184       -2.1715214042
 H         -4.4348249236        1.2799782873       -1.5302341664
 H         -4.3619943010       -0.2588872119       -1.6147617407
 O         -2.2643712756        3.6217024431       -1.3565984018
 H         -1.9533022092        2.8842529581       -1.9073110087
 H         -1.5818676427        3.7745877014       -0.6841541218
 O         -0.4625678323        4.1278236213        0.6934930028
 H         -0.5708591135        5.0485036612        0.9334267851
 H          0.5109112843        3.9535587581        0.6832889586
 O         -4.3519154347        2.4129406836       -0.2881257315
 H         -5.2011691700        2.8723356910       -0.4171156248
 H         -3.6280807313        2.9926153351       -0.6273598960
 O          2.7495641482       -1.8225056346        1.9536840733
 H          3.5859870385       -1.4555392800        2.3048132730
 H          2.3747798227       -1.1490422342        1.3497471249
 O          4.4130473502        0.5145420127        0.1823201145
 H          4.6535649517        1.4411476751        0.3375984678
 H          5.1283298800        0.1062826872       -0.3420967673
 O         -4.8690645721        0.5631474455        1.5957699064
 H         -4.1336897666        0.5231746135        2.2340058764
 H         -4.6555945556        1.3060984748        0.9976134511
 O          0.8576631536       -0.8140928395        3.6765517340
 H          0.0387160266       -1.2743637805        3.4421632157
 H          1.5741221095       -1.3427003346        3.2918808113
 O          1.6166889294        1.6215887624        2.8092921637
 H          2.5013138035        1.7626223347        3.2059596837
 H          1.3349133857        0.7409586456        3.1387076398
 O         -1.0661165562        2.2944240049        2.6676059654
 H         -1.0347558449        2.9539962357        1.9547462461
 H         -0.1385629350        2.1204216734        2.9003996767
 O         -2.7321130453        0.3299837266        3.2661287927
 H         -2.0978248296        1.0504155073        3.0332860231
 H         -2.8203029188        0.3657834169        4.2195500470
 O         -1.4382855154       -2.1125133419        2.7310360757
 H         -1.9278414982       -2.6115198183        2.0448254624
 H         -1.9892659946       -1.3404155273        2.9300021907
 O         -2.6938074188       -3.2446308560        0.6417605388
 H         -2.1886093233       -3.5304877623       -0.1452825881
 H         -3.2840991573       -2.5420260144        0.3058882204
 O          3.7689644896       -2.9515265662       -0.3823378793
 H          3.3743767676       -2.6201309495        0.4449966972
 H          3.0919039703       -3.5065991460       -0.7848745654
 O         -4.3815041519       -1.3322890130       -0.2641548368
 H         -4.6759453240       -0.7473269075        0.4655270949
 H         -5.1349480712       -1.9437512822       -0.4617532283
 O         -6.2999292613       -3.0759464902       -0.6922492499
 H         -7.0724387714       -2.6505411270       -0.3081735194
 H         -5.9479646227       -3.7012018356        0.0036651447
 O          4.7900380523        3.1169755159        0.9903495307
 H          5.3761486896        3.8727015908        0.9880976943
 H          3.8677366008        3.4463762283        0.9516877229
 O          5.1532366344       -0.6552350696        2.4046887922
 H          4.8164509269       -0.2106204053        1.5849128008
 H          5.6448718730       -1.4394379957        2.0654804340
 O          4.2199437045        1.8293278366        3.4593976102
 H          4.5658729751        0.9294171103        3.4534543239
 H          4.6254184271        2.2745148953        2.6992168544
 O          6.2483205870       -2.5912408539        0.9558760353
 H          6.6075444269       -1.9926013548        0.2818246654
 H          5.4937476373       -3.0178422930        0.5271172350
 O         -5.1364103250       -4.3575026184        1.2581574735
 H         -4.1864510341       -4.2125514925        1.1019696424
 H         -5.3881765886       -3.7198148857        1.9473289515
 O         -7.2582169060       -0.5727394956        0.6104198994
 H         -6.6252031685        0.0359928032        1.0143377691
 H         -7.3545556728       -0.2677328585       -0.3054652211
 O         -7.1423372034        0.5229592739       -1.9443269043
 H         -6.1677157560        0.4997703650       -2.1425335901
 H         -7.5958252142        0.3332736905       -2.7646905855
 O          6.6400040856       -0.6741954769       -0.9720810157
 H          7.0800089408        0.2063019727       -1.0149891121
 H          6.4363501852       -0.9435965607       -1.8702177572
 O          0.7570174245       -3.6685127206        1.4345900000
 H          1.5123484469       -3.1802473877        1.7869256245
 H         -0.0177750473       -3.3617746624        1.9169471749
 O          7.0486124666        1.3261380919        1.8755840483
 H          7.9422887025        1.0522213496        2.0809690066
 H          6.4646402102        0.6117649091        2.1914017562
 O         -5.9374282117       -2.1002132792        2.6113290183
 H         -5.3611768255       -1.3628595293        2.8235043411
 H         -6.6151938984       -1.7442012367        2.0212178782
 O         -4.3209265856       -3.6086575033       -2.6673315779
 H         -4.3170878177       -2.7796297337       -3.1494992958
 H         -5.0775695902       -3.5799359335       -2.0672373133
 O         -6.9934761788        2.9197631545       -0.5913613780
 H         -7.5245506023        2.8209558010        0.2000318411
 H         -7.1575528937        2.1252951952       -1.1320843995
 O          7.2353000942        1.8962064187       -0.8290689754
 H          7.0882354251        1.9090571965        0.1340886843
 H          6.3960010259        2.1068359573       -1.2580498924
