  612
 
 H         -0.6036902018        1.5192537614       -0.3602667136
 C          0.3592159411        1.2652963680       -0.7986149006
 H          0.3207318158        1.3594133684       -1.8805693544
 C          0.6763311575       -0.1728619545       -0.4240851171
 H          1.6837590323       -0.4318109816       -0.7342394172
 H         -0.0381279084       -0.8233709574       -0.9164674975
 O          1.3298748422        2.1866488726       -0.3573339152
 H          1.2677749119        2.2208404214        0.6264542691
 N          0.5544232575       -0.3449367632        1.0273529009
 H          1.3696044642        0.0854700601        1.5059607874
 H          0.4591196775       -1.3426176960        1.3012488172
 H         -0.3142399799        0.1293423088        1.3697178842
 O          5.0453705158        6.4137320982        2.3824370303
 H          5.4189490087        6.7411804902        1.5410292545
 H          5.7280020814        5.8783334557        2.8204875494
 O          2.7775376100        4.4126665773       -2.6732663948
 H          2.0520483907        4.6410086515       -2.0577357653
 H          2.9744661029        5.2097328389       -3.1964796292
 O          8.4438721427        3.8915580471       -1.6298858218
 H          8.0518669191        4.1947938666       -2.4709124168
 H          8.1681011329        4.4896352318       -0.9222163038
 O         -3.7600544297        1.5459392149        4.0378938646
 H         -4.1109848296        0.8589399606        3.4379633021
 H         -4.4978347840        1.8709850420        4.5707654171
 O         -3.9602576436        4.8346669176        0.1756574450
 H         -4.3924196097        4.5977600284        1.0104475055
 H         -3.0650065888        4.4543685570        0.2351120966
 O         -0.7698311437       -3.0129490709       -4.1230075299
 H         -0.1200277116       -2.9874963143       -4.8465577931
 H         -1.6058659550       -3.3383680346       -4.4657001710
 O          2.9406837711        0.6834362438        1.6272330855
 H          3.3891345197       -0.1777207476        1.5656872097
 H          3.3648121558        1.1929228844        2.3359003213
 O          5.4604403768        6.9040028702       -0.2510047011
 H          4.5412221486        7.1351436728       -0.4698407312
 H          5.5194109456        5.9511582978       -0.4496713916
 O          2.1340980011       -2.7268942591        4.0606393646
 H          1.9373462703       -3.4743375474        3.4584588155
 H          3.0711257873       -2.5225812532        3.9628836061
 O         -0.4374578036       -2.7880183840       -1.3921199368
 H          0.3373557458       -3.0462337630       -0.8567228213
 H         -0.1915022233       -2.8801040501       -2.3219062683
 O          5.1853271266        4.5066283292       -1.5423346592
 H          5.5810124230        5.0962106961       -2.2047091779
 H          4.2557757883        4.3857199068       -1.8258554020
 O          7.1971773748        4.3481460753       -3.9664230055
 H          6.9060766711        5.2685587362       -3.9249008088
 H          6.3872649866        3.7948725567       -3.9276330088
 O         -1.5914557857        0.9143083955        1.9778948226
 H         -2.4058736739        1.2518657335        1.5484593209
 H         -1.8470520411        0.3649365683        2.7338819730
 O         -1.1124741466        1.3784561239        4.8845870095
 H         -0.8351681972        0.7968895620        5.6037152660
 H         -2.0698317438        1.3016732577        4.8088515146
 O         -2.1018123578        3.4764157622        3.1084769964
 H         -1.3464861876        3.4411403124        3.7329019024
 H         -2.7228756162        2.7790492786        3.3993459266
 O          1.5702874487       -0.1272580117       -3.6966684148
 H          2.1223617937       -0.8969280434       -3.4906288727
 H          2.0511398305        0.6847400070       -3.4798470063
 O         -2.9294497265       -4.8421247076        5.8175063933
 H         -2.4974055463       -4.1896836715        6.3865241884
 H         -2.9759364259       -4.4201614120        4.9265337747
 O          1.2400037821       -4.6710550211        2.5141964679
 H          1.2422469473       -4.2735797313        1.6286168343
 H          1.2376723568       -5.6336477676        2.3994095236
 O          2.3243304301       -1.4744009718        6.4761936026
 H          2.0586280306       -2.2556753434        5.9762486989
 H          2.8254447189       -0.9298302550        5.8141477551
 O         -0.0787254487       -0.2402795069        6.8932444189
 H         -0.6895222799       -1.0049773679        6.9125172393
 H          0.8004764194       -0.6315328351        6.7388860637
 O          4.1338348560        2.6326208919        3.1522263062
 H          4.5582852643        2.7613239242        4.0256779893
 H          3.5592224829        3.3997323478        3.0375304934
 O         -1.5955820956        5.2762622180       -2.1253692942
 H         -2.0208147484        4.4188160677       -2.0492649332
 H         -0.7269117013        5.1823248482       -1.6909333995
 O         -4.9100293938        3.8613626261        2.5850638196
 H         -4.5263519133        4.1313519603        3.4291838314
 H         -5.8644835959        3.7683432834        2.7281619556
 O         -2.7883990755       -1.7181599338        0.9041415098
 H         -3.2857423003       -2.4972856268        0.6331591378
 H         -2.6811007141       -1.1422130460        0.1187482371
 O          1.7340275335       -3.4259032846        0.0853746822
 H          2.2792773346       -2.7527006972        0.5304660841
 H          2.3238889121       -4.1936368985        0.0239656178
 O          7.4082231568        0.7120526410       -3.3119205771
 H          7.9731950718        1.3151820104       -3.8266766903
 H          6.9133562616        1.2694175890       -2.6732944708
 O         -3.7514141941        1.9558201873        0.8509130478
 H         -4.4259691902        1.3704357575        0.4777205577
 H         -4.1951151033        2.5414885713        1.4811593439
 O          4.0265516096        2.5899138024        0.0520113793
 H          3.7137995871        3.4471351638        0.3928849904
 H          3.5363980438        1.8966469282        0.5332005232
 O          3.0837385876        0.7046087549        8.1668820566
 H          2.3597645830        1.3344051058        8.2303949424
 H          2.7039289046       -0.1250299558        7.8574757927
 O         -2.9491769009       -3.6842918878        3.4243841585
 H         -2.6057245223       -4.1935413152        2.6737200123
 H         -3.9032895210       -3.4843507073        3.2357496506
 O         -1.9944800199       -1.1718035648       -6.1609039681
 H         -2.3858158840       -0.5180745378       -6.7616510705
 H         -1.0606659884       -0.9000503921       -6.0816110390
 O          2.8002755920        6.8622683324       -0.8836145901
 H          2.3237763794        6.8234276956       -1.7232773285
 H          2.1817733635        7.3398964390       -0.2756916487
 O         -3.0877209829        5.7641356548       -5.3907201208
 H         -3.4699950246        5.8331387074       -6.2642622122
 H         -3.4058406173        4.9111894742       -5.0093929009
 O          7.0807816920       -4.4660238164       -3.0425735088
 H          6.9266092780       -3.5315833799       -2.7818988459
 H          8.0525784884       -4.5679207701       -2.9936383182
 O         -1.7344728866       -4.8835323821        1.2505768422
 H         -1.0430777776       -4.1923189782        1.3492899532
 H         -1.9741698482       -4.9064191538        0.3083428785
 O        -10.9642591590       -2.3839705858        1.2859863065
 H        -11.1914513177       -1.6144525204        0.7418533886
 H        -10.4759329922       -2.9847611720        0.7027694962
 O         -9.3033238216       -3.7768075690       -0.3910336922
 H         -9.1933993841       -4.5900707675       -0.8904127967
 H         -8.4163771399       -3.6096538929       -0.0033308030
 O         -0.4483135553       -3.3605214962        4.4576799081
 H          0.4983993594       -3.2746153543        4.6150380792
 H         -0.6045810170       -4.3246817206        4.4174233570
 O          0.7673718284        4.7168367399       -0.9404762249
 H          0.7584016203        5.1281448485       -0.0658390929
 H          0.8902873836        3.7570787385       -0.7613628676
 O         -0.4770069684        5.3528617457       -4.7163636006
 H         -1.3438856880        5.6928365216       -4.9932075129
 H         -0.6863701776        4.5081459757       -4.2575229574
 O         -7.5305715103       -1.3551066506        2.1150259352
 H         -7.2266565524       -0.4552996717        2.3312463970
 H         -8.2632763904       -1.5996709678        2.7114817011
 O          8.9740729026        3.0454884652        3.5466622468
 H          9.5453843110        3.1804380736        2.7777346831
 H          9.4398610920        2.4598008370        4.1507385657
 O         -4.5914701001       -6.5986440266       -1.0333314598
 H         -3.8467391155       -7.1459526596       -0.6845082291
 H         -5.3629199907       -6.8990707642       -0.5413801805
 O          3.2724302273        4.9745450504        1.0054769489
 H          3.1226689818        5.5594475561        0.2363664858
 H          3.9093836847        5.4473157440        1.5824533124
 O          4.8615358028       -0.4637542492       -3.6863274768
 H          5.0101676014        0.4859299680       -3.6926593558
 H          4.2543259743       -0.6520799282       -2.9313023542
 O         -0.7673064306       -6.0319584877        4.7249318241
 H         -1.0368532087       -6.5498432644        3.9431482372
 H         -1.5733168549       -5.8686015681        5.2511655106
 O         -5.9151890772       -5.3676474657        4.4416802088
 H         -6.7118008621       -5.1520040835        3.9108425541
 H         -6.1798626025       -5.9926807158        5.1144608050
 O          4.6488111522       -3.1685114332       -0.9951160760
 H          5.4470525766       -2.7369403293       -1.3186613538
 H          4.8434337807       -4.1222403638       -0.9767438723
 O          1.0879004022        4.1125633469       -6.4586659882
 H          0.5491015828        4.7349783886       -5.9235734574
 H          0.4505990115        3.4500232258       -6.7829412771
 O          6.2789301409        2.5022461529        1.4586491246
 H          5.6165678904        2.4969769521        0.7337405481
 H          5.7161826074        2.5987608527        2.2477488337
 O         -0.8561183762        2.2134245750       -6.5413727757
 H         -0.3042850253        1.4087045114       -6.4301333486
 H         -1.1342690928        2.4406546773       -5.6356295474
 O         -2.0897673019       -4.7655508134       -1.4194236630
 H         -2.8351711560       -4.5622889107       -1.9931872443
 H         -1.4894542862       -3.9718130045       -1.4254133983
 O          0.4476760308       -0.0721939258       -6.1164763103
 H          1.1043688394       -0.3896098917       -6.7474738617
 H          0.9041403488       -0.0335184980       -5.2488832809
 O          2.9094738854        4.9784261662        4.0752489436
 H          2.6821533048        4.5541208363        4.9243465950
 H          3.8232776357        5.2619531460        4.1623392730
 O         -2.6559799386        0.8566678211       -7.9515150458
 H         -2.0700251270        1.4718094645       -7.4485746710
 H         -2.3286049471        0.8357733674       -8.8495305442
 O          3.4755656333       -0.8584599567       -1.4848215679
 H          3.4958842111       -1.8256995507       -1.4387929749
 H          4.2013763086       -0.5564164800       -0.8713412998
 O         -2.9088401533        0.9734891902        7.1471924104
 H         -3.4210421016        0.2957370616        6.6706930268
 H         -2.3317021006        0.5112916172        7.7555472162
 O          5.1318976409        3.4038817520        5.5225279962
 H          4.3246269141        3.4966786401        6.0521440671
 H          5.5394188453        2.5679169987        5.8133758364
 O          3.3600222912        1.6961193251       -2.3327792465
 H          3.3039699980        0.8009882097       -1.9775983581
 H          3.4460313100        2.2387954505       -1.5224285159
 O         -3.0896145563       -3.4402890027       -7.1113142344
 H         -2.9477610059       -4.0758275660       -6.3945112527
 H         -2.5740641681       -2.6473098994       -6.8666510442
 O         -1.0713954445       -0.4439562757       -3.3844268970
 H         -0.1272398460       -0.2174877158       -3.4140203079
 H         -1.1006041930       -1.3888140712       -3.6301292194
 O          2.9718334756       -6.1913788989       -4.0770190408
 H          2.5251208843       -6.2321591108       -4.9333445965
 H          2.3937622150       -5.6158566322       -3.5228788845
 O          7.5474184000       -6.2068824705        0.6645884044
 H          6.9697322674       -6.3756219069        1.4461500600
 H          8.1266444516       -6.9627826165        0.5736924704
 O          1.4096786003       -6.3992965751       -0.6563080095
 H          0.6172845456       -6.8262610692       -1.0498357758
 H          2.2102791304       -6.8541357521       -0.9994706902
 O         -6.9540271138        1.2408957476        2.4412311199
 H         -6.5638978660        1.8126814109        1.7524519182
 H         -7.9101579323        1.3078662164        2.2691911190
 O         10.2123633706        3.4969538299        1.0707109117
 H          9.3694074174        3.9631905330        0.9091523137
 H         10.5222848720        3.2048118770        0.1977980133
 O          8.7404630449        2.3549268683       -5.0130501122
 H          8.3258560104        2.1590411368       -5.8582827932
 H          8.3708769848        3.2046197342       -4.7191624984
 O         10.4171420383        2.1084627028       -1.3387461904
 H          9.8638324458        1.3697993334       -0.9937013978
 H          9.7852937008        2.7988407629       -1.6019611198
 O         -2.5870386262       -0.0627488432       -1.2305833007
 H         -3.4786208240       -0.0698176158       -1.6231539173
 H         -1.9860963714       -0.3281721022       -1.9549785353
 O          3.7323249508        4.3948230567       -5.9822081363
 H          2.8146680432        4.2495738977       -6.2830881183
 H          4.3003415893        4.1219257061       -6.7047148028
 O          0.5299379826       -0.5763240643        3.7324587820
 H          1.0841791724       -1.3622153106        3.8507488502
 H         -0.3936854335       -0.8044295556        3.9067418096
 O         -8.1130422841       -0.6027189410       -0.3385178137
 H         -7.9052657074       -1.3169913428       -0.9649554680
 H         -8.0588777851       -1.0020974977        0.5519220176
 O         -7.4412506145        1.4554444090       -6.2354483837
 H         -6.6276231210        1.0030241193       -6.5050785317
 H         -8.1415489954        0.7690183512       -6.1800732288
 O          3.9312866212       -7.9049228091        1.0990594518
 H          4.7906126375       -7.9348750641        1.5318131400
 H          4.0327599204       -8.1589196102        0.1750408292
 O          5.9659386583       -3.9863262271        1.4983406343
 H          6.4781728742       -4.2907675161        2.2545265535
 H          6.4377798981       -3.2265694871        1.1112382179
 O         -5.9096588997        2.7007770374        5.3396012968
 H         -6.4475213146        2.3694384310        6.0593945011
 H         -6.5187902935        2.9365780980        4.6222286318
 O          0.7762498588        5.0272847894        1.8517250992
 H          1.7470219583        5.0447475346        1.7294245110
 H          0.5683657785        5.5633371993        2.6353318682
 O         -6.4611599117        6.0485727889        4.2757565241
 H         -6.0760456191        6.5466344785        3.5400835746
 H         -5.7199735432        5.7968154320        4.8398295397
 O         -1.4905297140        3.8554444775        0.5796710261
 H         -1.1615409522        4.7671634274        0.6704348562
 H         -1.7056952895        3.5547289219        1.4863946781
 O          0.0247217253        6.4542723898        4.0307128246
 H          0.3422668550        7.3579504177        4.0076297214
 H         -0.9455310795        6.4537749672        3.9409570358
 O          3.8967255073       -5.3114238478        3.5596285727
 H          3.1773751026       -5.3605562049        4.2155513967
 H          3.4673712613       -5.2048525995        2.6840490636
 O          7.3712173077       -1.7202349845        3.5817789294
 H          8.0592604737       -2.3788563457        3.3642809322
 H          7.7076007374       -0.8968757654        3.1796397488
 O         -3.5819511880       -2.1430008154       -4.0546310823
 H         -2.9841190956       -1.5878676887       -4.5760720587
 H         -4.3394434703       -2.2905647689       -4.6448283873
 O         -9.4648524948        1.1349408193        1.4314518696
 H         -9.2534447930        0.7091976468        0.5884573509
 H         -9.5930051605        2.0856746558        1.2547176582
 O          3.2541995800        1.3440492832       -6.4489673963
 H          2.9090670567        1.6637803631       -5.6034062893
 H          4.2146246602        1.5050430865       -6.4759692887
 O         -3.9594345237        3.4912403817       -4.3217260450
 H         -4.1135483390        3.5161044850       -3.3685164986
 H         -3.4740322254        2.6560990040       -4.4882406437
 O          6.9304142345       -1.1917816643        6.3197055334
 H          6.2523823535       -1.8536800338        6.5554282684
 H          7.1082887936       -1.3229237972        5.3726459212
 O          4.8217308901       -2.8632210445        6.5174910358
 H          4.7192398920       -2.8665053366        5.5483405534
 H          4.0322124245       -2.4287754736        6.8622020636
 O         -0.4019346836       -6.0156461360       -4.2544892187
 H         -1.2688468170       -5.6482484755       -4.5004747703
 H          0.1600438838       -5.9752665914       -5.0446986889
 O          4.9845536779        2.8099708496       -4.0708121764
 H          4.4419375339        3.4057760829       -4.6140415607
 H          4.3848336974        2.4617360927       -3.3699279116
 O          5.6385972438       -5.6732151508       -1.1842190139
 H          6.1803135190       -5.3634778541       -1.9417867128
 H          6.2788723408       -5.8371860261       -0.4687788753
 O          3.7024309899       -0.0497996505        4.7365122357
 H          3.0251105863        0.6357187181        4.5448161466
 H          4.3493647736        0.3646105055        5.3642432970
 O         -0.4698179935       -2.6644699601        1.8081864822
 H         -0.4665571585       -2.8377845118        2.7683306203
 H         -1.3241867060       -2.2428028836        1.5828305328
 O          5.3087289826       -0.1262176117        2.6469855121
 H          4.6736835956       -0.1870460988        3.3945533716
 H          5.9068852204       -0.8725903484        2.7403650504
 O         11.1246789486       -1.5214416120       -1.7763203566
 H         11.1633702842       -2.4195524607       -2.1222987113
 H         11.3138129070       -0.9129026645       -2.5013838079
 O         -7.2149956180       -2.6470678444        4.8764492031
 H         -8.1450956026       -2.6782293489        4.6265512886
 H         -6.9868578516       -1.6962457567        4.9260771258
 O         -5.1283467479       -3.2995593286        6.5478585066
 H         -5.9389901099       -3.3519230123        6.0214196426
 H         -4.5687049709       -4.0463036194        6.2796817378
 O         -9.3616628452        3.4556329316       -5.2022611361
 H         -8.9027829976        3.8782067385       -4.4628420026
 H         -8.7016607015        2.9670799673       -5.7083623556
 O         -4.3515488012       -4.2159289054        0.2742758849
 H         -4.3700800687       -5.0143831915       -0.2912915776
 H         -4.2551312607       -4.5849614695        1.1696369835
 O         -2.0579070142        3.5663836529        6.6685403909
 H         -2.4033757604        2.6650991673        6.7835798981
 H         -1.3765737652        3.5179952155        5.9713783577
 O         -9.6350110755        3.8169758722        1.5284041309
 H        -10.4707392896        4.1462645495        1.8575171036
 H         -9.4571117764        4.3379030602        0.7002994740
 O         -4.5253491254       -2.1107217082       -1.5129736328
 H         -4.1433524041       -2.1274797569       -2.4139589041
 H         -4.3120347363       -2.9511548655       -1.0898083520
 O         -4.9429004464        3.0078894988       -1.7173947619
 H         -4.0174085934        2.8920003613       -1.4301492668
 H         -5.4832425963        2.9108915616       -0.9016976806
 O         -4.1717761285       -0.9948771573        5.7301900873
 H         -4.5258247901       -1.8418702914        6.1050475737
 H         -4.9632208428       -0.5372597637        5.4005898246
 O          7.3321820690       -4.7362206805        3.9695147281
 H          7.2220352841       -4.4649972885        4.8821108321
 H          8.1980315733       -4.3973438780        3.6757704037
 O          5.4837886467       -0.0406724201       -0.1236468274
 H          5.8559163769        0.7733165786       -0.5015100219
 H          5.4357916339        0.0675833045        0.8373990348
 O         -7.9812150858       -4.8655734338        2.7603603135
 H         -7.5461391685       -4.3469494527        2.0425014125
 H         -8.6837174373       -4.3069822343        3.0988608224
 O          2.4837925388        7.4974323380        3.0613324536
 H          3.4105296983        7.6062699008        2.8245371556
 H          2.4384488994        6.6099718685        3.4579993283
 O         -2.8886466971       -5.1310468437       -4.9168569528
 H         -3.3204712936       -5.8998952208       -5.2902379457
 H         -3.4601837003       -4.8449484747       -4.1532584205
 O         -8.6144038518        0.3924271876       -2.8478263029
 H         -7.8658297127        0.1166379412       -3.4032901024
 H         -9.0373515381       -0.4207352471       -2.5175998432
 O         -8.6086337491        1.7078012269        5.0715433006
 H         -9.3915831792        1.2449581059        4.7396926473
 H         -8.4348014171        2.4270050833        4.4446408128
 O         -9.6274282788       -2.1877789876        3.5559903250
 H         -9.9827917541       -1.3468210469        3.8884305978
 H        -10.1754900476       -2.3661502631        2.7568363185
 O         -5.3603167652       -2.9590927091        2.9058850504
 H         -5.9943911203       -3.0364656707        3.6376422602
 H         -5.1942547208       -2.0009410514        2.7970337866
 O         -4.4825256835       -4.6346521538       -2.8970599680
 H         -5.3096092857       -4.4121393351       -3.3781504332
 H         -4.6505314072       -5.4369899136       -2.3770652595
 O          9.0269417491       -1.5686491872       -3.7871967536
 H          8.6151443538       -1.4870069193       -4.6604831394
 H          9.5814392520       -0.7652013483       -3.6944120487
 O          1.2947793527       -4.6591986386       -2.6572797207
 H          0.5324370782       -5.0035113067       -3.1620726565
 H          1.3072429016       -5.1197582982       -1.7927826140
 O         -4.6002844375       -0.4416023543        2.4282209456
 H         -3.7661498143       -0.8198726337        2.0857057265
 H         -5.0954255680       -0.1902049669        1.6216293858
 O         12.4160314565       -0.6247899818        0.4578590756
 H         11.9968710493       -0.9794882379       -0.3453288555
 H         12.6023394477       -1.3667296277        1.0344814968
 O         -2.6710198314       -8.0831086117        0.0112743511
 H         -2.2915883911       -7.8940996076        0.8872250176
 H         -1.9490656534       -7.9836549213       -0.6260467192
 O         -5.3195575020       -2.3308178656       -6.1725745427
 H         -5.2136649687       -1.3885264241       -6.4209273522
 H         -4.6218559827       -2.8033085369       -6.6791370677
 O          1.0713079030        7.9164245270        0.7680083139
 H          1.5142489144        7.8403859040        1.6332967633
 H          0.2368467832        7.4176197432        0.8316642821
 O          3.6753266795       -1.9904287972        1.3136842566
 H          4.0895548730       -2.3106875285        2.1285472207
 H          4.2074656344       -2.3608932884        0.5883664927
 O          0.6804635793        2.4373225544        2.1801439140
 H         -0.2004147156        2.0384161052        2.3006371119
 H          0.5752380757        3.4136591203        2.1198667312
 O          1.7295420984        2.5580981164       -4.3223541510
 H          1.5489414148        3.1232297511       -5.0963779562
 H          2.1600414332        3.1277304872       -3.6521698047
 O         -5.7047663995        5.5829324702       -1.9851544872
 H         -5.3087871786        4.6942311310       -1.8570919876
 H         -4.9901902828        6.1484372519       -2.3365227806
 O         -8.6261606101        2.3600265706       -1.0863475919
 H         -8.4391151347        3.0880631069       -1.7148569577
 H         -8.4832002546        1.5442148191       -1.6123783545
 O          6.4239305544        2.1665479302       -1.3821271955
 H          5.7844635871        2.9074673035       -1.4228535637
 H          7.2813687786        2.6076732240       -1.2453815348
 O         -4.9023888722        6.9817586758        2.1792545075
 H         -4.5845643322        7.5091345054        1.4322578041
 H         -4.0976220124        6.5975063186        2.5728112493
 O          7.3390109479       -1.9466193506        0.4040287943
 H          7.5906333896       -1.1238850136        0.8830660292
 H          7.0692105807       -1.6368707697       -0.4741599983
 O          1.2656809442       -7.3027782541        1.8321909804
 H          1.2953944750       -6.9555332273        0.9102182717
 H          2.1085262316       -7.7518804849        1.9477201759
 O         10.4648700291       -1.0857083339        3.6323999929
 H          9.9865821204       -0.6014093967        4.3321597600
 H         10.5831564218       -0.4280642732        2.9299623062
 O         -0.8601481748       -7.0946495067       -1.8129453120
 H         -0.6787340975       -7.0681712638       -2.7625241729
 H         -1.3443449379       -6.2542894109       -1.6372732087
 O          6.7722473626       -1.8868984183       -2.3596224210
 H          7.6351742609       -1.6727549883       -2.7717668295
 H          6.1289740810       -1.3248123782       -2.8348290972
 O         -6.5584407747       -0.0273333774        4.8007082516
 H         -7.3136519579        0.5199578667        5.0919147798
 H         -6.3468676822        0.3273879551        3.9218113655
 O          9.1135218540       -3.8592909123        0.1759488123
 H          8.4823970364       -3.0991638714        0.2125345492
 H          8.5770025112       -4.6534002915        0.3168329911
 O          9.6612308941       -3.9739656828       -2.5196567354
 H          9.5475928937       -3.8816152455       -1.5525728452
 H          9.4820727693       -3.1120474542       -2.9292597695
 O          2.5037962367        3.4129029875        6.2542890680
 H          2.3373245645        2.6619976136        5.6523288573
 H          1.8529929265        3.2821276392        6.9633588248
 O          9.3879930566       -3.3787056465        2.8945157910
 H          9.5081690863       -3.5103914597        1.9375528619
 H          9.9457036805       -2.6110854129        3.1622449621
 O         -4.3989870471       -5.9736277059        2.3357094328
 H         -3.6803571784       -6.5780268522        2.5314746491
 H         -4.8288801544       -5.7240674772        3.1826185887
 O        -10.6001956252        0.3574562215        3.6984605169
 H        -10.2482257334        0.5915265459        2.8093485680
 H        -11.5521435215        0.4351252455        3.6475759497
 O         -5.5598732328        0.0520660083        0.0082086057
 H         -6.5226731535        0.0158888111       -0.1688130664
 H         -5.1593709661       -0.6178481537       -0.5637006109
 O         -8.9930419062       -2.7695151145       -4.4333199871
 H         -9.6825430814       -3.2739322150       -4.8644096083
 H         -9.3660840759       -2.4466033759       -3.5863907939
 O          3.4791574232        6.5228432341       -4.2331739965
 H          2.6022974610        6.9254466008       -4.1682422538
 H          3.5201358981        5.9721281926       -5.0304470972
 O          1.3981526268       -2.9373299930       -5.7489964828
 H          1.9408672235       -2.7931844571       -4.9371790410
 H          1.7822043717       -2.3376080444       -6.4165912818
 O         -9.3838339875       -0.3428096614       -5.8525369626
 H         -9.1679139599       -1.1335373159       -5.3366340041
 H        -10.0533043350        0.1565618832       -5.3556247723
 O         -7.5926478058        3.8003446871        3.3907719426
 H         -7.3873138520        4.7022577896        3.7185613115
 H         -8.2640311199        3.8882571300        2.6906157692
 O         -6.6353762517       -6.4904302742        0.8344485114
 H         -7.3677877968       -6.2865739961        1.4253228578
 H         -5.8327797718       -6.3276341505        1.3698945379
 O         10.5169975852        0.8225834557        1.6534844126
 H         11.2373218412        0.4151019203        1.1318704484
 H         10.5708183148        1.7796094684        1.5119541277
 O         -3.5373168240        6.9200145951       -2.9067514179
 H         -3.5061862815        6.8080536739       -3.8653951225
 H         -2.7896922453        6.3792586665       -2.5773890511
 O        -11.2970082666        1.9438622135       -1.4453233242
 H        -10.3843139282        2.2109036801       -1.2235301647
 H        -11.3052901446        1.8385092229       -2.4176607764
 O         -6.6525752074       -0.9456361218       -4.0502838790
 H         -6.8881100520       -1.6669391460       -3.4311779819
 H         -6.5194380866       -1.3364674617       -4.9163385342
 O         -2.6224372531        6.0087210404        3.4380230943
 H         -2.4485768874        5.0504555637        3.2200793958
 H         -3.0885354006        5.9439787288        4.2821032893
 O          3.6657900525       -7.4178104896       -1.6874325053
 H          3.4731772764       -7.2955515453       -2.6277981431
 H          4.3818875347       -6.7741889178       -1.5009275098
 O          1.0094591715        6.9185655319       -3.1103189751
 H          0.4085586020        7.4832923800       -2.6231614985
 H          0.4378928129        6.3179427896       -3.6362110994
 O         -1.4229800506       -7.2213139100        2.3491689592
 H         -0.4987440841       -7.4792218121        2.2020575860
 H         -1.4985481742       -6.3256947280        1.9344880100
 O        -11.7306312137       -0.4686237632       -0.6039082799
 H        -12.6634645140       -0.6027867650       -0.7692124979
 H        -11.5469676675        0.4832418658       -0.8636271948
 O          1.8385559214       -5.3424847654        5.3713184819
 H          0.9732505963       -5.6646721022        5.0654922839
 H          2.0058419930       -5.7545212943        6.2175052727
 O          6.0190012272       -6.8184608811        2.7814548772
 H          6.6573324094       -6.4442218610        3.4034048957
 H          5.1900991181       -6.3555349016        3.0237065897
 O          2.7786017491       -2.6181601306       -3.4957064194
 H          3.6027440050       -3.0969426594       -3.7095951321
 H          2.2325658921       -3.2560280255       -3.0036706129
 O          7.2269007795       -0.6232935873       -5.6932219377
 H          6.4821769437       -1.2190683096       -5.8903277037
 H          7.0819628877       -0.2730208707       -4.7954567278
 O         -9.1403373917        5.3911031182       -0.4941383795
 H         -8.2763082884        5.6733829711       -0.1426408838
 H         -8.9876445911        5.1062020153       -1.4014733584
 O         -7.8708928223        4.2057195704       -2.8781427194
 H         -7.2010499838        4.8705051222       -2.6393636819
 H         -7.3337974408        3.4615408387       -3.2642347391
 O          6.7853503683        1.5110125206        4.2364665637
 H          6.3020681062        0.9804863062        3.5772891359
 H          7.3571393668        2.1198914805        3.7520621559
 O          9.0115974536        0.4891396894        5.3240595705
 H          8.1490184796        0.8120436232        4.9777200023
 H          8.7883946153        0.0219390584        6.1315072309
 O         -7.3624430084       -5.3208095773       -1.5770262103
 H         -7.0860809452       -5.9485393769       -2.2436080388
 H         -7.0797395212       -5.6654331774       -0.7081729162
 O         -0.0964512190        3.8090713423        4.7998122699
 H          0.3911656209        4.6330148477        4.7129062547
 H          0.5046050025        3.0465501369        4.8022339684
 O         -6.4583684767        2.2956627675       -3.9562847559
 H         -6.8950072138        1.9448867440       -4.7636914429
 H         -5.6606133730        2.7499228472       -4.2630430273
 O         -6.5276494828        2.9175719602        0.4112028625
 H         -6.5907817217        3.8824202911        0.5632011478
 H         -7.3478116624        2.6640695965       -0.0667364222
 O        -10.0109774474       -1.8556209544       -2.1455928883
 H        -10.7074467819       -1.3546264601       -1.6763226069
 H         -9.7070567472       -2.5311626082       -1.5068204983
 O          3.5993060471       -5.1773211755        0.9072144238
 H          4.4814246837       -4.7742429916        0.9875893902
 H          3.7174068213       -6.1359255091        0.8397820108
 O          5.9602571439        6.6288572885       -3.0735561243
 H          5.1003605875        6.7998094088       -3.4907524489
 H          5.9884440670        7.1408524659       -2.2540053796
 O          4.7461163698       -4.2277893706       -4.3851432526
 H          5.6212683974       -4.4341960058       -4.0230586224
 H          4.2131211818       -5.0477833010       -4.3312026122
 O        -10.7314418584        1.4115991716       -4.0824572979
 H        -10.4531256041        2.2218579584       -4.5521989382
 H         -9.9156728231        1.0914310386       -3.6411029260
 O          5.9868641728        1.7371800059       -6.3642446312
 H          5.8558950304        2.0547134005       -5.4553689882
 H          6.4516151897        0.8825473362       -6.3020513806
 O          0.4731135916        2.3653638932        7.7467746139
 H          0.2253507910        1.4728219819        7.4549668596
 H         -0.3273987860        2.8987021657        7.6636533711
 O          7.9228862876        0.2534514919        1.8047138242
 H          7.4139639867        1.0513670494        1.5827608864
 H          8.8648481779        0.4588002114        1.6539079917
 O          4.8251888676       -2.8409479512        3.7686633336
 H          5.7748459285       -2.6583163870        3.6994957469
 H          4.6850702351       -3.8116866746        3.6728601453
 O         -4.8265469420        0.4400484238       -2.6506175138
 H         -5.5184817352       -0.0215848781       -3.1596461707
 H         -5.1725112579        1.3283520417       -2.4416243926
 O          7.7141624597        4.6494558900        0.8752113617
 H          7.1796219688        3.8495009821        1.1095365775
 H          7.6456018002        5.2329210427        1.6318767759
 O         -3.5896732128        7.4129928280       -0.1737539194
 H         -3.8019857782        6.4440823771       -0.1439295845
 H         -3.6410693957        7.6569954904       -1.1024385427
 O         -4.0853143406        4.6916106874        5.3141800212
 H         -3.3187063584        4.3980077222        5.8604018594
 H         -4.7566468082        4.0129755959        5.4938452147
 O         -6.6537012006        5.6052686515        0.5261508577
 H         -6.1134755769        6.0947408045        1.1680848274
 H         -6.2227246210        5.7272651631       -0.3477511570
 O         -0.9063962370        2.8342469161       -3.8846147890
 H          0.0319876830        2.5691277462       -3.8275489417
 H         -1.3530752049        2.6479910383       -3.0400274751
 O          1.6882727788        1.6357765981        4.4302959495
 H          1.5385351395        1.9890805029        3.5242137660
 H          1.0768156706        0.8628512720        4.4286488503
 O         -1.3153263806        6.5780013386        0.9487877247
 H         -2.0251402854        6.9933628347        0.4163249947
 H         -1.6629868429        6.5430523393        1.8463567107
 O         -4.8937853147        0.3038510853       -6.5048619103
 H         -4.3671167513        0.5425138910       -7.2777528589
 H         -4.3172070391        0.5427872287       -5.7490604721
 O         10.5855265792        0.6375418042       -3.5881549477
 H         10.6646908929        1.2045174882       -2.7865026070
 H         10.2312286189        1.2185196719       -4.2710308518
 O          2.7511178868       -1.1487417334       -7.2708400878
 H          2.9391844470       -0.2000258535       -7.1080795941
 H          3.5796757491       -1.5784973478       -6.9872046241
 O         -3.1227028301        0.9730899034       -4.5450970827
 H         -3.7366845075        0.7417310873       -3.8033192394
 H         -2.2765689185        0.5597432618       -4.3061676110
 O         -2.3251140071        2.5601619074       -1.5806325969
 H         -2.4473903275        1.6010912757       -1.3945706427
 H         -2.0102638021        2.9490059292       -0.7402332550
 O          6.7313028924        4.7092032862        3.6762880567
 H          7.5927157573        4.2682416727        3.6948537991
 H          6.2305818399        4.3069638116        4.4031569804
 O          8.8490376640       -0.0112922212       -1.0087482004
 H          8.3532312356        0.1231690285       -1.8340635409
 H          9.5333457239       -0.6703622708       -1.1817657521
 O         -6.9091793692       -3.4970821461        0.7245083218
 H         -5.9797833708       -3.7428871879        0.5479893609
 H         -6.8763277468       -2.6875620659        1.2665461268
 O         -6.5655368590       -4.1382081006       -4.4782478143
 H         -7.4354531754       -3.7320176920       -4.3307215762
 H         -6.1759027412       -3.6333682343       -5.2070837888
 O         -7.0910339019       -2.5624094076       -1.9885684959
 H         -7.2353782198       -3.5161133968       -1.9002581967
 H         -6.1505507464       -2.4059704531       -1.7476523931
 O          1.3913988739       -5.5269422687       -6.2628558195
 H          1.4253744870       -4.5472626622       -6.1149182538
 H          1.4054843034       -5.6643415061       -7.2087944325
 O         -2.2006861679       -1.1187740169        3.8080262239
 H         -2.3595243778       -2.0646118305        3.6263677629
 H         -2.8979365997       -0.8680030090        4.4322454017
 O          4.8964301811       -2.0101405696       -5.8892461027
 H          4.7040551966       -1.4396549854       -5.1197134061
 H          4.8931831959       -2.9157760787       -5.5385218297
 O          5.2920465160        0.9233872122        6.5611146794
 H          4.6982107299        0.8475089054        7.3260165367
 H          5.9759062765        0.2221623395        6.6064493873
 O         -1.7265100557       -2.3399514734        6.5581988266
 H         -1.2861125312       -2.6483760973        5.7340178924
 H         -2.5377229997       -1.8977936029        6.2852937823
