  117

 H         -0.5425054112       -1.1597996585        0.9180873602
 C         -0.6112510051       -0.5412956740        0.0100749183
 H         -0.5391308395       -1.1969144470       -0.8712436601
 C          0.5103658647        0.5037878336       -0.0094871840
 H          0.3911098457        1.1518924073        0.8600966288
 H          0.3944399221        1.1152669956       -0.9056411629
 O         -1.7891825170        0.2100258093       -0.0077307040
 H         -2.5646581753       -0.3620747641        0.0026734601
 N          1.8637421186       -0.1172780949        0.0059475209
 H          1.9871272140       -0.7237037738       -0.8163106223
 H          1.9839787968       -0.6890763206        0.8531041600
 H          2.5930828886        0.6072400317       -0.0077051379
 O          4.5044674833       -2.3502090103       -1.6954010022
 H          3.6961249189       -1.9857920651       -2.1066432517
 H          4.1796566802       -3.1789494322       -1.2985325050
 O          2.5035455585       -1.5528779529        2.2017194445
 H          3.4064026781       -1.5216480619        1.8399394196
 H          2.4752609001       -0.8822136273        2.9116025075
 O          3.3124521325        2.1501807403       -0.2719451961
 H          3.0057412076        2.4409270822        0.6180571838
 H          4.2762521727        2.0633048992       -0.2156975507
 O          2.1049343083        0.4859023779        3.9028018216
 H          2.4212120874        0.5686954145        4.8025178375
 H          1.1489501335        0.2324465164        3.9583110982
 O         -0.3912212996       -0.3186612674        3.8877607108
 H         -0.9796068047        0.3163403382        3.4265648347
 H         -0.6460823483       -1.1871948564        3.5572275745
 O         -3.4985153172       -1.8977179842        0.0184483907
 H         -3.8609416653       -1.6994162033       -0.8742917338
 H         -4.2143535343       -1.6207860815        0.6369888759
 O          2.2234020477       -1.1513618119       -2.4566175798
 H          1.4521567139       -1.4850426445       -2.9358311353
 H          2.4577258236       -0.2640367734       -2.8098200440
 O          2.2343475696        2.5862750995        2.0957035420
 H          2.2970464348        1.8826847283        2.7611579088
 H          1.3266502523        2.9296273117        2.1498640054
 O         -4.3143657023        1.4471100375        0.4304807702
 H         -4.1176684067        2.2587005567        0.9395882665
 H         -5.1321136931        1.6285933172       -0.0968551282
 O         -1.9450448923       -2.2972781703        2.4819452000
 H         -2.5975775248       -1.8664285777        3.0607291558
 H         -2.3645138011       -2.3272562922        1.6142867850
 O          4.5186605502       -0.8619966997        0.6042791407
 H          4.5724538551       -1.4370049618       -0.1801641549
 H          5.1055534284       -0.1133846053        0.4169407640
 O          2.9318561827       -4.1766103175       -0.4837388968
 H          2.0299483307       -4.1172714372       -0.8330010294
 H          2.8377359072       -4.3869397801        0.4470491177
 O          0.5590901010       -3.4546136275        1.7927717458
 H         -0.2600808643       -3.1936006969        2.2316941165
 H          1.2568302534       -2.8413785327        2.0742809420
 O         -2.0827344681        1.2368931445        2.5075851418
 H         -2.0638689139        0.9628843962        1.5686056434
 H         -1.6571551762        2.1124007947        2.5273676538
 O         -0.4270239489        3.3525703603        2.1953909150
 H         -0.5457700862        4.1587116327        2.6989274371
 H         -0.7241377999        3.5587231483        1.2723741555
 O         -1.3022886700        3.9485709356       -0.2158040537
 H         -0.4313474294        4.1588531195       -0.6158846812
 H         -1.7336451985        3.3355276698       -0.8436210189
 O         -2.7508180068        2.1433883910       -1.6759995720
 H         -2.1418430365        1.4361269352       -1.9439429317
 H         -3.1946931271        1.8161294204       -0.8629549811
 O         -4.7090438073       -1.2903640574       -2.2841549721
 H         -5.5976529759       -1.3543955698       -1.9016674149
 H         -4.6596277459       -0.4014084662       -2.6782479329
 O         -4.6766193445        1.2815218112       -3.2525898930
 H         -3.9474811155        1.7209799023       -2.7418777119
 H         -4.7259608634        1.7163833848       -4.1030596964
 O         -1.5939248981        0.1054761944       -3.1851680411
 H         -2.2934996707       -0.1117036364       -3.8031061129
 H         -1.0707035569       -0.7165987127       -3.0751747944
 O          3.1146149605        1.2955072456       -2.9845139166
 H          3.1510196766        1.7403297522       -2.1238597472
 H          4.0303076433        1.0776400700       -3.2068352607
 O          5.5933672464        0.0769909123       -2.9061835145
 H          6.4910131967       -0.0446181097       -3.2230198745
 H          5.3047202861       -0.7962222852       -2.6030610268
 O          1.1473713348        4.0159492214       -1.2665617289
 H          1.9341585847        3.6457220066       -0.8545355723
 H          0.8997721085        3.3986385652       -1.9735224710
 O          0.1774388690       -3.6984744644       -0.8344840415
 H          0.3217107654       -3.5829114666        0.1301411555
 H         -0.6875116434       -4.1322306595       -0.8999745157
 O          5.9057290137        1.2742094534       -0.4636584750
 H          6.8349174142        1.3160667601       -0.2350059045
 H          5.8616754111        0.8724050648       -1.3565031196
 O         -0.2372431402       -2.2099087001       -3.0526472854
 H         -0.0090056889       -2.7562861030       -2.2746853183
 H         -1.0429835288       -2.6320488112       -3.4092459958
 O         -6.4286308360        1.6000809884       -1.1331469714
 H         -5.9935442561        1.5801708623       -2.0009636879
 H         -6.8148682590        0.7198914632       -1.0091427777
 O         -6.9264697509       -1.1070463844       -0.5958584186
 H         -6.4802294764       -1.0571429873        0.2688206379
 H         -7.7794092972       -1.5167525488       -0.4478135373
 O          0.4209402000        1.9459788587       -2.8888044319
 H         -0.2949891676        1.3781737427       -3.2105111244
 H          1.2193145846        1.7316464277       -3.3813916217
 O         -3.6652806162       -0.5530754566        3.7611705431
 H         -3.1873462285        0.2076724250        3.3713415446
 H         -3.6801496872       -0.4116672193        4.7077759942
 O         -5.2895436575       -0.7413107614        1.5753194494
 H         -4.9841781715       -0.7960423776        2.4931225460
 H         -4.9562795421        0.1295422853        1.2471170519
 O          7.1956940438       -1.3907431821       -1.1888535767
 H          6.4505574986       -1.9980498768       -1.2775822372
 H          7.8888156396       -1.8700402337       -0.7348348805
 O         -3.5652726622        3.8561264435        1.3816443801
 H         -2.7970028272        4.0469698341        0.8186771453
 H         -4.2170148086        4.5324771712        1.1956621538
 O         -2.7668765175       -3.0914031569       -3.3388910883
 H         -3.5062800845       -2.5062840551       -3.1248296007
 H         -2.7356123280       -3.7452676595       -2.6272403579
 O         -2.5257281306       -4.3137658285       -0.7857479379
 H         -2.8971781008       -5.0333069150       -0.2760428150
 H         -2.8828027089       -3.4813547379       -0.4179550441
