  301

 H         -0.0000000000       -0.0000000000       -0.0000000000
 O          0.2716564035        0.6592093510       -0.7685045156
 H          1.1425716960        1.0773900714       -0.4906948819
 H         -0.4624471401        1.3862284802       -0.8321941839
 O         -0.2672652544       -0.9713403426        1.0273737283
 H         -1.2463064751       -0.9801907259        1.0149333296
 H          0.0547006898       -1.8698446288        0.8048543141
 O         -1.8780871614       -3.1885028042       -0.3289691049
 H         -1.0654785080       -2.8910378532       -0.7866304954
 H         -2.5762447128       -3.0945853191       -1.0016762008
 O         -2.2091499294       -0.1023936202       -1.9836615271
 H         -1.3161860768       -0.0741323555       -2.3758398484
 H         -2.7103085688        0.5981944841       -2.4321199127
 O          2.4587601510        1.8540844938       -0.0200273297
 H          2.2568108328        2.0331102703        0.9133066896
 H          2.2512988485        2.6606004887       -0.5385956920
 O          0.2370267200       -2.2339557269       -1.7752399904
 H          0.7941188535       -2.9812782390       -2.0581534108
 H          0.8545727470       -1.6413621804       -1.3021330998
 O          0.0673644222        0.2809923044       -3.3737737602
 H          0.1496330377        0.0790669660       -4.3285907407
 H          0.9759260364        0.2321591884       -3.0030065420
 O          2.3938661709       -0.9612102901        2.2091426069
 H          1.5749299312       -1.3111779290        2.6181019914
 H          2.2222554127       -0.9395499721        1.2397169741
 O          1.5168361003        3.7415398421       -1.6248938349
 H          0.9113244189        3.4059764840       -2.2973424915
 H          2.0992141178        4.4002184666       -2.0618702483
 O         -1.5135491819        2.3876284145       -0.9363967061
 H         -1.2934507149        3.0993059185       -0.3171597846
 H         -2.4076618617        2.0416188437       -0.7529425872
 O          2.2306487252       -1.0804780340       -0.4223215019
 H          2.5977784956       -0.4578888760       -1.0737625362
 H          2.8427961210       -1.8385694058       -0.4225514908
 O          2.6073067609        0.2989890563       -2.6971101177
 H          2.9606087287        1.1813959069       -2.9227137629
 H          2.9991661329       -0.3304743066       -3.3314864562
 O          0.7428845386       -3.4761035971        0.6743276728
 H          1.6749761420       -3.3943748438        0.4541644898
 H          0.3884938510       -4.1086706930        0.0259010242
 O          1.6932061154        4.0546066636       -4.6552044210
 H          0.8998493909        3.5999703191       -4.3020703077
 H          1.6023144221        4.9736472472       -4.3527452273
 O         -0.4565308294        4.6830000855       -0.0856422134
 H          0.3826309818        4.4322750317       -0.5204216284
 H         -0.2914440129        5.5138210640        0.3940340765
 O         -2.5829395757        1.8098761614        1.8767735139
 H         -2.8244235455        0.9441697796        1.4873257786
 H         -1.5996353128        1.8652476730        1.7786209723
 O          1.5074516930       -4.8040906557        3.1233060600
 H          1.0025508478       -3.9746118939        2.9546501578
 H          1.3156048216       -5.3973606616        2.3572240656
 O         -4.0742941881        1.6325287393       -0.7075825047
 H         -4.5428667620        1.5020097333        0.1444994517
 H         -4.4635290079        0.9741284414       -1.3062431223
 O         -3.1574104749       -2.4929615631       -2.5294558842
 H         -2.9593587028       -1.5530292785       -2.3164995674
 H         -2.4673917611       -2.7436488229       -3.1702129609
 O         -2.8119324945       -0.5214042455        0.6171704199
 H         -2.6324535132       -0.3255569127       -0.3238327026
 H         -3.6026461660       -1.0893963716        0.6174604393
 O         -0.4381015292        2.8101209700       -3.5972264732
 H         -0.2866191552        1.8628209201       -3.3449150247
 H         -0.8787850281        2.7150731772       -4.4710104081
 O         -3.5586742440        1.7061001979       -3.5157409850
 H         -4.5229998508        1.8588959341       -3.4389290380
 H         -3.2176771137        2.4879179509       -3.9828927444
 O         -2.1088364745       -2.8678353773        2.2518471280
 H         -2.0508899158       -2.9866152418        1.2778720748
 H         -1.8415925143       -3.7159029020        2.6705663430
 O          5.1053520977        1.7486819238        0.5226137716
 H          5.1178853082        2.4420033363        1.2022221509
 H          4.1673265021        1.6482994456        0.2454864290
 O         -0.0023717699        1.9881039426        1.5010620453
 H          0.4260052465        2.8182981548        1.7807873685
 H          0.2573185745        1.3140034034        2.1519102615
 O         -2.3609221634       -0.1308010338       -5.0356546222
 H         -1.8718590009        0.4827269650       -5.6034170744
 H         -2.9086706789        0.4492801103       -4.4714486400
 O         -1.9847833768       -5.7332166269        0.8216766439
 H         -2.9500835324       -5.8567148618        0.9400677840
 H         -1.9064965703       -4.8774446555        0.3627850778
 O          2.2246295406       -3.8591924038       -2.7173980842
 H          2.2100925747       -4.6917874456       -2.2210337582
 H          3.1575499280       -3.5625883019       -2.7262936269
 O         -1.0029715153       -2.2988039860       -4.1024953590
 H         -0.5763526245       -2.0780181347       -3.2466208881
 H         -1.3792893915       -1.4759004192       -4.4658487721
 O          1.3356645267       -2.9796223008       -5.0869059284
 H          1.7016195148       -3.4296692424       -4.2988472537
 H          0.4099482961       -2.7733783039       -4.8018230655
 O          2.5624744573        1.6921623420        2.7182791583
 H          2.5212051565        0.7240383730        2.5925696366
 H          2.5094631292        1.8210838656        3.6836638827
 O          3.6584277638        2.6037077688       -3.5639029903
 H          4.0441412955        3.0862349859       -2.8005097057
 H          3.0287875701        3.2440140411       -3.9687851195
 O         -3.2126150572        4.1787269109        0.9749706252
 H         -3.0123283586        3.2402508195        1.2188973536
 H         -3.6073325445        4.1549788289        0.0774917496
 O          4.7749266039        3.7160695128       -1.4014307240
 H          5.2260172357        3.0257350450       -0.8980525891
 H          4.1300313772        4.1164425722       -0.7898480567
 O          3.0532483644        0.9999567767       -5.8987044947
 H          3.4417565146        0.1585021380       -5.6144341478
 H          3.2962689206        1.6495042557       -5.2274039644
 O         -5.3945253743       -0.4168508644       -1.9222119951
 H         -5.6030438215       -1.0286073307       -2.6467141453
 H         -5.2707166912       -0.9832689740       -1.1339171311
 O          1.1824668633        4.2748983849        2.2390634509
 H          1.7736913288        4.3556731482        3.0248073925
 H          0.3698794769        4.7642428153        2.4462867507
 O         -1.3858958922        4.9496171514        2.9222925058
 H         -1.2664902493        4.1151370638        3.4126752393
 H         -1.8972300087        4.7282692102        2.1295178252
 O         -4.1706481757        4.1271439825       -1.5328532342
 H         -4.1460476329        3.1462673088       -1.4314193482
 H         -3.3229610507        4.3811115893       -1.9570241952
 O          0.1413690266        0.4710270532        3.6875427939
 H          0.8002053983       -0.0259912455        4.2109740757
 H         -0.6973598303       -0.0209118228        3.7248773438
 O         -1.7513588477        4.8248424483       -2.3962035398
 H         -1.3503434174        4.8933973085       -1.4964307010
 H         -1.3575875057        3.9973401938       -2.7526896186
 O          4.8044491203       -0.9369814182       -1.2519775812
 H          5.4918229854       -1.1754257702       -0.5993313419
 H          5.1704844843       -0.2418362719       -1.8191661124
 O          5.7907120035        0.8214113330       -3.1545649002
 H          5.1553215757        1.5175939279       -3.3824586710
 H          6.0421614415        0.3924867243       -3.9730968158
 O          3.5409162638       -1.3771744549       -4.6321545952
 H          4.1683807112       -1.9719047644       -4.1930859321
 H          2.7962862450       -1.9495545445       -4.8940742737
 O          0.6646033053       -0.3408639420       -5.8991463025
 H          1.0562716779       -1.2184829775       -5.7908484870
 H          1.4091433372        0.2655130117       -6.0522116432
 O          0.3847513572       -2.4101651868        3.3336931227
 H          0.0418636005       -2.4295538457        4.2498240056
 H         -0.4010551280       -2.3737740449        2.7666300515
 O         -1.3458913568       -5.1995222640        3.3209958827
 H         -1.5710500386       -5.6113269552        2.4546281599
 H         -0.4196746197       -5.4031971357        3.4874784056
 O          2.7506474918       -5.7886631609       -0.8267680975
 H          3.4823618454       -6.4043308927       -0.8434651151
 H          3.0759425946       -4.9770208528       -0.3843603437
 O         -4.6243677890       -3.4071878751        2.9898140918
 H         -3.7709315888       -3.1295440433        2.5954493477
 H         -4.3729459077       -3.6914482995        3.8883101688
 O         -0.7950527700        2.7509911899        4.5157493138
 H         -1.7422657108        2.4983768134        4.6415939473
 H         -0.3660238444        1.9461451200        4.1288761381
 O         -0.1071706503       -5.1205965118       -1.4100282992
 H          0.1161483416       -5.2899157879       -2.3384483196
 H         -1.0682408719       -5.2213333558       -1.3788443592
 O         -2.2563894727       -0.7576624170        3.9135424045
 H         -2.3855449576       -1.4187046599        3.2143316182
 H         -3.1300890888       -0.5479086087        4.2880310683
 O         -3.3393107886        2.1999451169        4.4178613928
 H         -3.6749874536        3.1241964131        4.4863255893
 H         -3.2236874645        2.0076757498        3.4605819986
 O         -5.5029594596        3.7734211408        2.3608167568
 H         -6.1787669483        3.9973976810        1.6961913387
 H         -4.6671617733        3.9796094841        1.8989149089
 O         -5.0255996101       -1.9584501176        0.2582291453
 H         -5.1125668322       -2.8416880401       -0.1697638897
 H         -5.6575474208       -1.9025425891        0.9791394632
 O         -5.5351587570        1.2064932269        1.4501263097
 H         -5.6445969556        0.4147866068        2.0087336945
 H         -5.6054639031        2.0004377091        2.0110758959
 O          2.8623043602        2.0735434230        5.3509943210
 H          3.5497344323        1.4134938502        5.5168732514
 H          2.1283715732        1.9348541113        5.9793058282
 O          2.0157359671       -0.8459633641        5.0847601382
 H          2.9484026330       -0.5525047717        5.0237253949
 H          2.0284324738       -1.8159467228        5.1633318414
 O          3.6479926237       -3.3091308222        2.7468482136
 H          3.2272872628       -2.4263460934        2.7110466609
 H          2.9066499870       -3.9335775990        2.9445937394
 O         -5.2628500477       -4.1656894381       -1.1786018409
 H         -5.6569672916       -3.8094719431       -1.9847230265
 H         -4.3890665964       -4.5236021794       -1.4380153859
 O         -4.6152444761       -5.5350807682        1.2311719015
 H         -4.7534116822       -4.8675819804        1.9268702165
 H         -5.0950093240       -5.2224539572        0.4572131586
 O          3.5438422566       -3.3599934893        0.0792478028
 H          3.6919842000       -3.3511695567        1.0490541958
 H          4.4341783572       -3.5093740372       -0.3076376519
 O          0.8273832672       -6.3806250638        1.1037737492
 H         -0.1061648874       -6.3172943964        0.8608979675
 H          1.3234831001       -6.2451968792        0.2796095241
 O          4.5158889506        3.5311978107        2.4486277901
 H          4.5537896416        4.0813065676        3.2338722357
 H          3.7939964320        2.8854060078        2.6140630092
 O         -0.9505705208       -2.3015655833        5.6734149288
 H         -1.5121818534       -1.6913593268        5.1515008507
 H         -0.5663516549       -1.7461371950        6.3802599473
 O         -3.1182781805       -4.0589001753        5.1387936467
 H         -2.6114374637       -4.7185204073        4.6456835430
 H         -2.4518481732       -3.4928412146        5.5506812057
 O          0.3582247719       -0.5463743608        7.2041850525
 H          0.2249787009        0.3981013706        7.3390143249
 H          1.0963327722       -0.6057926547        6.5702387175
 O          3.1230891371        4.7974097734        0.5073695879
 H          2.2981839575        4.6129615927        1.0035382947
 H          3.8139409154        4.6183247877        1.1678819200
 O         -5.8179256331       -1.0024389316        2.9638622150
 H         -5.6052963041       -0.6306300120        3.8303101207
 H         -5.4819028163       -1.9213397403        3.0055859261
 O          5.0983410435       -0.3241597919        2.2809529799
 H          5.1795166999        0.4425251247        1.6817802806
 H          4.1819696049       -0.6247924939        2.1945038012
 O         -6.0123491548        2.6926222838       -3.1453740891
 H         -6.5751011540        2.2563442714       -2.4890064713
 H         -5.7317734741        3.5228337804       -2.7432290726
 O         -7.0586216118        1.4171652908       -0.8366432250
 H         -6.7424373149        1.2942079680        0.0756321113
 H         -6.6807089760        0.6603821821       -1.3194960200
 O          0.5262958966        6.1607394352       -3.2977073960
 H          0.8916184982        6.5114045001       -2.4730167519
 H         -0.3709049280        5.8659680136       -3.0904837350
 O          1.8672418956       -3.5480593068        5.6019362687
 H          1.7442268788       -4.1723777699        4.8714391375
 H          1.0570428452       -3.5581266300        6.1176571705
 O         -2.9166606677       -5.3372103122       -1.9334444810
 H         -2.8427327069       -5.0511755982       -2.8658867175
 H         -3.0256783749       -6.2881713201       -1.9203660560
 O          4.5777138434       -0.0788243039        4.9736023399
 H          4.9198316705       -0.0332227208        4.0633446554
 H          4.8181195015       -0.9745491543        5.2821408206
 O         -5.5365116599       -2.5754195526       -3.6152215542
 H         -4.6116809293       -2.6108557687       -3.2719831799
 H         -5.4503048852       -2.5666998363       -4.5699998001
 O         -0.2495467406        7.0620067375        1.1838034994
 H         -1.1277112133        7.2348805431        0.7886694940
 H         -0.4013804253        6.9782171773        2.1272293162
 O         -4.5305608879       -0.0110053863        5.1837545462
 H         -4.5562258238       -0.1379442289        6.1310309131
 H         -4.2234981776        0.9088909021        5.0150456727
 O          1.7383773821        6.8123354533       -0.8212700348
 H          2.3133019498        6.1911377336       -0.3452655718
 H          1.1534522753        7.1922599219       -0.1561426415
 O          4.7648470270       -2.9942782214       -2.8465293178
 H          4.7539009382       -2.2178828555       -2.2222383645
 H          5.4017094131       -3.6092485148       -2.4696931250
 O         -6.5750638873        4.0921837818       -0.0762203894
 H         -6.9054550701        3.2371491047       -0.3864960636
 H         -5.8099941135        4.3094977722       -0.6203047860
 O          4.5787747815       -2.7395337047        5.2880912824
 H          4.4628801635       -3.0069858029        4.3619327531
 H          3.8142010952       -3.0950829505        5.7545966014
 O         -1.2785186654        2.1898408496       -6.0375915391
 H         -1.8921071769        2.8533993468       -6.3574664589
 H         -0.4195683574        2.3334952698       -6.5038947696
 O         -3.0727516801        4.0826352666       -4.7952817804
 H         -2.6454035638        4.7000906618       -4.1902667813
 H         -3.9803902789        4.3683308848       -4.9055600425
 O         -2.6903161097        6.8300620227        0.1186356756
 H         -2.9424181714        5.9802075461        0.5042910477
 H         -2.9016647589        6.7844468380       -0.8146820840
 O          1.1150028676        2.7857933884       -6.9756595788
 H          1.3929284473        3.4263677413       -6.2954429564
 H          1.8210070536        2.1326285222       -7.0062359535
 O          3.2450158387        5.4856157900       -2.7868106371
 H          4.1643693138        5.3473736957       -2.5457550382
 H          2.9729158540        6.3391697787       -2.4383929456
 O         -2.7289421756       -4.6032981936       -4.5233969452
 H         -2.9962973069       -3.7494130992       -4.9632420634
 H         -3.0961255895       -5.2984629048       -5.0651627286
 O          2.7087446403        4.5910195161        4.3831808375
 H          2.8780381139        3.7348936232        4.8144159071
 H          1.9971821663        4.9953597973        4.9070707725
 O          6.6830660514       -1.6884613354        0.5519572510
 H          7.2535929340       -0.9755677776        0.2163789496
 H          6.2547742953       -1.3392497827        1.3565130203
 O          7.3413647626        0.6277278895       -0.7003365914
 H          6.6655076509        1.1213021374       -0.2146938681
 H          7.1467618390        0.7673313741       -1.6329225805
 O          0.5692137588        2.2113614848        6.7805888259
 H         -0.0090019452        2.3626677344        6.0042353085
 H          0.6543607078        3.0652440799        7.2055293254
 O          4.7347615351       -5.5820932700        1.4428138504
 H          4.7246057267       -4.9089135633        2.1327961795
 H          4.0663745226       -6.2252326268        1.6868861081
 O         -3.4643474222       -2.4666345730       -5.8449738064
 H         -2.7718315072       -2.5363734156       -6.5247948724
 H         -3.2902381766       -1.5857062988       -5.4679577159
 O          6.0025935957       -4.0654560811       -0.5923612070
 H          5.9401753759       -4.7742704648        0.0594873374
 H          6.4737222762       -3.3291048223       -0.1652043834
 O          0.2755056182        5.0845566778        5.4697866614
 H         -0.0993901210        4.2491104035        5.1441534912
 H         -0.3381255147        5.7651779390        5.1936957744
 O         -3.9077269814        4.7680820537        4.3467872843
 H         -3.1957267099        5.1684450388        3.8314278063
 H         -4.6777190702        4.6782263601        3.7627560366
 O         -0.1068200780       -5.3961614332       -4.1305916320
 H          0.4953559691       -5.0252433346       -4.7783786076
 H         -0.9781765893       -4.9998665644       -4.2996148470
 O         -1.0620830190       -2.2787029685       -7.1319163159
 H         -0.3620942126       -2.8957259905       -6.9097222196
 H         -0.7275116452       -1.4001166228       -6.9109886582
