  87

 H         -0.5425054112       -1.1597996585        0.9180873603
 C         -0.6112510051       -0.5412956740        0.0100749183
 H         -0.5391308395       -1.1969144470       -0.8712436602
 C          0.5103658647        0.5037878336       -0.0094871839
 H          0.3911098457        1.1518924073        0.8600966290
 H          0.3944399221        1.1152669956       -0.9056411630
 O         -1.7891825170        0.2100258093       -0.0077307041
 H         -2.5646581753       -0.3620747641        0.0026734602
 N          1.8637421187       -0.1172780949        0.0059475209
 H          1.9871272141       -0.7237037740       -0.8163106223
 H          1.9839787968       -0.6890763206        0.8531041602
 H          2.5930828886        0.6072400317       -0.0077051379
 O          2.3056840818       -1.1480145059        2.4934317906
 H          2.9452248616       -0.4612820252        2.7691937821
 H          1.4694062247       -0.8374221214        2.9069264912
 O          2.0742604548       -1.2990318746       -2.4029982700
 H          1.4976806815       -0.6579651903       -2.8573698445
 H          2.9832534618       -0.9896768274       -2.5569547667
 O          3.4798566097        1.9580255399       -0.4311145745
 H          3.7150237866        1.8417203488       -1.3558977537
 H          2.8338373748        2.7049891977       -0.3514838760
 O          1.5858825426        3.6739768775        0.1070257914
 H          0.6938981261        3.6231180248       -0.2716576936
 H          1.4930470658        3.3817862923        1.0274997380
 O          0.1555482127        0.0780679006        3.4012543503
 H          0.3711115337        1.0031007096        3.2156516539
 H         -0.8142616844        0.0012143615        3.4234271187
 O         -4.4787068193       -0.5286398938       -0.2156135617
 H         -4.5406474648        0.4498678137       -0.1900744073
 H         -4.4382862886       -0.7940176100       -1.1449538847
 O         -2.0644667377        0.9117277747       -2.6223833933
 H         -2.5513700515        1.7532916002       -2.6517015104
 H         -1.8759074248        0.7859983710       -1.6697768247
 O          0.5703331033        0.7699191932       -3.3460471486
 H          0.7380949823        1.2046986479       -4.1825112400
 H         -0.3919565866        0.8206700527       -3.1895498987
 O         -4.6088354863        2.1327464623        0.2166578921
 H         -5.4265291553        2.0124842194        0.7202043712
 H         -3.8901467596        2.2306841551        0.8848565180
 O          4.5021504201       -0.1655454396       -1.9366731600
 H          5.4165881635       -0.1147443323       -2.2195845565
 H          4.5264868979       -0.6166317969       -1.0768255296
 O          1.4823757435        2.4495711130        2.6426597268
 H          1.4849332303        3.1568883304        3.2894867719
 H          2.3343977118        1.9723064773        2.7506802864
 O          4.3054875911       -1.7394205453        0.4029888122
 H          3.9528006307       -1.7407427503        1.2969997437
 H          3.8508056283       -2.4863099278       -0.0638845026
 O          2.7353442293       -3.4816532715       -0.7794326967
 H          2.4059526600       -3.0159729279       -1.5584079703
 H          1.9934247843       -3.5255716949       -0.1510304536
 O          3.7697596101        1.0373187670        3.0712317589
 H          4.4825058454        1.2688773255        2.3983712483
 H          4.1705851341        1.1694929610        3.9308757661
 O         -2.5658728424       -0.1810600243        3.3767728092
 H         -2.7456989611       -0.9102405679        2.7405380866
 H         -2.9633089474       -0.4483161244        4.2061640144
 O         -3.6300201663       -1.2533933767       -2.7493295148
 H         -3.9320977515       -1.4785054847       -3.6296229440
 H         -3.0382590473       -0.4700527274       -2.8367331318
 O          5.5434664125        1.6624106399        1.3126816236
 H          4.9348824562        1.9499433473        0.6107373153
 H          6.0752681119        0.9465864353        0.9194146145
 O         -3.4488228620        3.1421314971       -1.9823539206
 H         -3.9584628745        2.8189682539       -1.2112270602
 H         -3.9856303791        3.8119057645       -2.4042967082
 O         -2.4700514010        2.0979961932        1.8147599755
 H         -2.0595167019        1.4650270541        1.1963054994
 H         -2.6549540968        1.5669649045        2.6022492942
 O         -1.0695874782        3.2303701926       -0.4700892091
 H         -1.4762564933        3.2482291739        0.4023250764
 H         -1.7873150044        3.3764277682       -1.1008863860
 O         -3.1622041775       -2.0882119745        1.5967721190
 H         -2.6580879759       -2.5595582520        0.9159339400
 H         -3.8743393820       -1.6521231537        1.1050222712
 O         -2.3065708832       -2.9121996027       -0.9208386623
 H         -2.2962921607       -3.8297548203       -1.1934374458
 H         -2.8035574661       -2.4228431051       -1.5978494077
 O         -6.5132777601        0.6842015149        1.5374620081
 H         -6.1374215177       -0.1044209868        1.1291892033
 H         -7.4076827370        0.4707765027        1.8047526923
 O          6.7280953547       -0.5168081319        0.1344444120
 H          7.5329454080       -0.9258939382        0.4531366552
 H          5.9987046786       -1.1396961439        0.2986799118
 O          0.9151740917       -3.2089737797        1.2563528881
 H          1.4515949678       -2.6885522496        1.8713385236
 H          0.5766389402       -3.9590179003        1.7461055721
