  146

 H          0.4630927076        1.1941025328        0.8323452958
 C          0.5529035761        0.5095402430       -0.0251092077
 H          0.4633421182        1.0989800596       -0.9466436098
 C         -0.5779259333       -0.5149488604        0.0205351875
 H         -0.4518492549       -1.1270258237        0.9278134321
 H         -0.4840892691       -1.1748678656       -0.8448928486
 N         -1.8603253885        0.1647702475       -0.0623309409
 H         -2.6131021662       -0.5138473280       -0.0751527666
 H         -1.9956541839        0.7570092262        0.7508171932
 O          1.7808081027       -0.1833448059        0.0209869107
 H          2.5006908393        0.4507195084       -0.0567171281
 O         -1.1688258627        1.2503134216       -2.6960771338
 H         -0.5879125064        0.5921212415       -3.1129763835
 H         -1.5848945089        0.7903436772       -1.9483629791
 O          1.5084950498       -2.3975314925       -1.6978465878
 H          1.1395312460       -3.0161467219       -1.0402935981
 H          1.7922075699       -1.6347637536       -1.1631284012
 O          3.2909963679       -3.7215046815        0.4738986010
 H          2.4903706064       -4.2220763666        0.2941197747
 H          3.1011328694       -3.1821040261        1.2668187686
 O         -2.2022505187       -3.2783816826       -0.8880739551
 H         -2.9828392071       -3.8548081749       -0.7188326730
 H         -2.5535439793       -2.5404951004       -1.4309829727
 O          4.0279385807       -1.3561699102       -0.6698195139
 H          4.8688015718       -1.5443735779       -1.1566630139
 H          3.7248444217       -2.2352114901       -0.3740580204
 O          2.3898905581       -1.7825445247        2.1093503366
 H          1.5588297448       -2.1474440557        2.4660114048
 H          2.1355343040       -1.2358928575        1.3373349954
 O          0.3492196429       -3.8423011263        0.2955478304
 H          0.2825612082       -3.5654330860        1.2193959755
 H         -0.5558470583       -3.8496745679       -0.0454357667
 O         -3.2575704718       -1.3546235381       -2.4640187767
 H         -3.4693185971       -0.4184088674       -2.3118071155
 H         -2.7403159406       -1.4186742249       -3.3047841654
 O          2.8893624644        0.3483503954        3.6262863605
 H          2.8075244060       -0.4731701235        3.0831936816
 H          3.8191218555        0.4211318638        3.8448532881
 O          5.1830933235       -0.0245339777        1.3017765800
 H          5.9607570448        0.1747447544        0.7412218174
 H          4.6564274094       -0.6278062163        0.7268446993
 O          0.1966884607       -0.2779329628        4.3269017038
 H          1.1360818980       -0.0534768969        4.3466249924
 H         -0.2557050501        0.4812394015        3.9373423621
 O         -0.0672689570       -2.5831873345        2.9213186266
 H         -0.0479515768       -1.8297608038        3.5458203649
 H         -0.9823469967       -2.6106828175        2.5807241787
 O          0.6514755434       -0.6256551499       -3.6064208267
 H          1.5268080094       -0.2431470766       -3.7483649488
 H          0.8063015254       -1.3585499182       -2.9826712666
 O          3.1982005937        0.2500589889       -2.7517759070
 H          3.3751232122       -0.3183908892       -1.9767044915
 H          2.5917811209        0.9566504763       -2.4596152968
 O          3.5397621497        1.8268404918        0.4001980917
 H          4.1752717475        1.2472439472        0.8860219391
 H          2.9949158708        2.2493017345        1.0767967005
 O         -2.4557169744       -2.4897431366        1.7009485954
 H         -2.3553006363       -2.7031456905        0.7530267271
 H         -3.3003539801       -2.8991761369        1.9693413030
 O         -1.5207563299        3.2499123613       -0.3389434371
 H         -0.6174069567        3.6237396041       -0.1961442501
 H         -1.4100424606        2.2962639120       -0.4431310456
 O         -4.2586120635        1.1271744041       -1.7433266492
 H         -3.8620830698        1.9351078036       -2.1358683491
 H         -4.2652668988        1.2885034315       -0.7762339499
 O         -4.5699010751        1.3249787930        0.9344615487
 H         -5.5498539634        1.3940426585        0.9652331999
 H         -4.1910827662        2.1852646072        1.2319208230
 O         -3.0688991335       -0.0902003921        2.7791595250
 H         -3.7717139836        0.3384271336        2.2638607601
 H         -2.8278531490       -0.9030715721        2.2839081777
 O         -1.1604351677        1.7992997104        2.8180971119
 H         -1.8382334752        1.0879356922        2.8675933189
 H         -1.6726225128        2.6139237734        2.8118024568
 O         -4.5871279030       -1.3592104964        0.3577852623
 H         -4.6235756873       -0.3950376299        0.3731137001
 H         -4.9030054912       -1.6679501032       -0.5152486869
 O          1.6207044985        2.4437706030        2.4107514794
 H          2.0973001470        1.7612154970        2.9226505906
 H          0.6900623910        2.3395283688        2.6550899927
 O          1.0069973778        3.9118841743        0.0374617072
 H          1.3823402704        3.3367618620       -0.6519294502
 H          1.2850831555        3.5564487339        0.8916941129
 O         -2.9950240461        3.3257867181       -2.5886397269
 H         -2.4646557361        3.5065691759       -1.7847700395
 H         -2.3939523494        2.8080845256       -3.1403823091
 O         -5.6829712735       -2.3374069954       -1.8831705480
 H         -4.8574669148       -2.1704205422       -2.3786247220
 H         -6.2583013748       -1.5776663677       -2.0665587925
 O         -6.7226436891        0.2224045699       -2.0637064555
 H         -7.1408820961        0.6078087984       -2.8330801441
 H         -5.8054568640        0.5931010360       -2.0205985554
 O         -1.7109328766       -1.7556303346       -4.5501246942
 H         -1.4228095070       -2.6465935308       -4.2717164732
 H         -0.9086007347       -1.2185679804       -4.5037812678
 O          1.6083135256        2.4219063910       -2.2348508854
 H          0.8141200356        2.4821443388       -2.7745175181
 H          2.2576888388        3.0887758922       -2.5635046616
 O          5.0844935335        2.0028484582       -1.8599046770
 H          4.5875442268        2.0562774640       -1.0231970553
 H          4.5992207057        1.3407767123       -2.3908862441
 O         -7.1725626199        0.8922351675        0.6413875620
 H         -7.2000579016        0.6534136523       -0.2984837015
 H         -7.2837937767        0.0587262191        1.1288611496
 O         -6.9303170376       -1.7713810667        1.4971123618
 H         -6.0260239424       -1.6495231621        1.1112154277
 H         -7.4151171937       -2.3283654286        0.8862298265
 O          6.2098332292       -2.0794683418       -1.9406760439
 H          5.6818400610       -2.4623862013       -2.6583431927
 H          6.3393522316       -2.8032648212       -1.2749913484
 O          6.1108904960       -3.7839048960        0.0586049688
 H          5.1814413802       -4.0082780051        0.1939853732
 H          6.3872815704       -3.3184819148        0.8769657283
 O          6.9458611428        0.3074601367       -0.7438218206
 H          6.4811918244        1.0023950829       -1.2442127143
 H          6.8484677831       -0.5090039264       -1.2621767621
 O         -0.6895866506       -3.8741403102       -3.1784154135
 H          0.2234235432       -3.6991295547       -2.9364459752
 H         -1.2086677441       -3.8354267397       -2.3586444824
 O         -4.5035155719       -4.3936293009       -0.1732852521
 H         -4.6870252780       -4.1955349670        0.7557936666
 H         -5.1331479232       -3.8944707200       -0.7073559800
 O         -4.8654821284       -3.4627514598        2.5762010287
 H         -5.6833846442       -2.9572150295        2.4677900383
 H         -4.5027523814       -3.1666265309        3.4335885626
 O          3.8643532354       -2.5632772013       -3.3793163988
 H          3.1031878880       -2.7204635176       -2.8020591055
 H          3.7704708374       -1.6595150521       -3.6938984042
 O         -3.2778900261        3.5392201321        1.6571077166
 H         -3.9373606089        4.1597243625        1.3322427942
 H         -2.5983479515        3.5119741221        0.9478983065
 O          6.6583041351       -2.2207196226        2.2011487077
 H          7.5136406446       -1.8052496897        2.0079409493
 H          6.0140875495       -1.5003772855        2.1204285695
 O          8.5897868366       -0.4140172039        1.3555142537
 H          8.6941776557        0.4068537181        1.8375005146
 H          8.1919779565       -0.1799917284        0.5028680731
 O         -3.5392578084       -2.1424973421        4.5510293122
 H         -2.6333351618       -2.4072292719        4.7208733371
 H         -3.4821470096       -1.2703986076        4.1239706746
 O         -5.0058010974        3.9424785781       -0.5167754277
 H         -5.9212536132        3.7944258617       -0.7557314898
 H         -4.4952099808        3.9705012291       -1.3338651104
 O          3.5892235527        4.0910007822       -2.7123717706
 H          4.3103989767        3.4511883001       -2.5343446910
 H          3.5915679941        4.7122799370       -1.9817944977
