  102

 H         -0.5425054112       -1.1597996585        0.9180873603
 C         -0.6112510051       -0.5412956740        0.0100749183
 H         -0.5391308395       -1.1969144470       -0.8712436602
 C          0.5103658646        0.5037878336       -0.0094871839
 H          0.3911098456        1.1518924073        0.8600966289
 H          0.3944399221        1.1152669956       -0.9056411630
 O         -1.7891825170        0.2100258093       -0.0077307041
 H         -2.5646581756       -0.3620747641        0.0026734602
 N          1.8637421188       -0.1172780949        0.0059475210
 H          1.9871272141       -0.7237037740       -0.8163106225
 H          1.9839787968       -0.6890763206        0.8531041602
 H          2.5930828884        0.6072400317       -0.0077051381
 O          1.9197717876       -1.6578355307        2.2146456388
 H          1.5844607382       -2.4634811050        1.7546701342
 H          2.8562309880       -1.8702176201        2.3886792384
 O          1.6005184452       -1.6550414313       -2.1243846778
 H          2.3404115854       -2.2501076054       -2.2917883846
 H          1.5312919414       -1.0280063319       -2.8618472731
 O          3.4671876406        1.7518561171       -0.9925351346
 H          4.2419380561        2.1814776077       -0.5810547357
 H          2.9253781999        2.4183106545       -1.4319408872
 O          0.7532353738        0.3905432773       -3.7779961036
 H          0.7765480119        0.4093709102       -4.7349370012
 H         -0.1931654884        0.2889053320       -3.5236391882
 O         -1.7810461727        0.1676992073       -2.8690194275
 H         -1.6065510843        0.6918273641       -2.0693715132
 H         -2.0577350886       -0.7179839102       -2.5698668816
 O         -2.7558152724       -2.1946922326       -1.7629292052
 H         -3.3387903925       -1.9519912405       -1.0300898660
 H         -2.1465487205       -2.8516477376       -1.3888801267
 O          1.2504949735        2.7576887056       -2.3892605158
 H          1.2818230618        1.9596014057       -2.9442178038
 H          0.3042713787        2.9680607975       -2.3357431155
 O          1.4019280360       -3.6776190994        0.6119610931
 H          0.5015794696       -3.6979350489        0.2504547956
 H          2.0090178590       -3.6339465859       -0.1432616495
 O          5.0363211271       -1.4769125723       -0.4190937969
 H          4.8139714054       -1.0294692721       -1.2764913728
 H          4.6012494428       -0.9364480024        0.2723624655
 O          2.8005683285        2.1914571641        2.1545817463
 H          2.0854040916        1.8060837792        2.6818806998
 H          2.3664243829        2.7646585311        1.4933709999
 O          0.8987758456        0.5162052406        3.4368666298
 H          1.1006069426        0.4792244348        4.3729114894
 H          1.2521308128       -0.3130544720        3.0481482386
 O          4.1902683887        0.0166697333        1.6225243409
 H          5.0072150782        0.0007986828        2.1232674567
 H          3.7521473657        0.8752754343        1.8217617874
 O         -4.2707803523       -1.0406251624        0.3256891737
 H         -4.9638085314       -0.8144126499       -0.3141605226
 H         -4.5011298629       -0.5147102726        1.1111392003
 O          1.3082524147        3.5559817532        0.3581487317
 H          1.3179156471        3.4334681702       -0.6004533825
 H          0.3838519557        3.5006348879        0.6304594021
 O         -1.4532245527        3.2770350421        1.0404312356
 H         -1.5783718462        4.1600852692        1.3921250897
 H         -2.3683328419        2.9011185598        0.9527766307
 O         -1.3148269098       -3.7476205095        0.0284896193
 H         -1.5334724486       -4.6720798215        0.1566774345
 H         -1.6540502922       -3.2768281745        0.8230838801
 O         -4.1271307651        1.4702138160       -1.9716124007
 H         -4.8316276628        0.8083459636       -1.9749263043
 H         -3.4235314738        1.0923904392       -2.5204181629
 O          6.9540789987        0.1566762634        0.7575361082
 H          7.8771712674        0.0878988973        0.5115237926
 H          6.4674916302       -0.4930989513        0.2156151831
 O         -1.7612923849        0.2736928560        2.7643057454
 H         -0.8753478304        0.4504277637        3.1267000171
 H         -1.7390043783        0.6032268179        1.8490308023
 O         -3.8836340320        2.3903852646        0.5885668804
 H         -3.9116343400        2.0015180335       -0.3087981974
 H         -4.1507284276        1.7027684600        1.2162705738
 O         -2.4396298477       -2.3516506425        2.0376438458
 H         -2.1511272116       -1.5247141952        2.4615004265
 H         -3.2855255263       -2.1497925014        1.6209178460
 O         -4.4270307967        0.5084205367        2.5891393598
 H         -3.5071904467        0.4562181814        2.9106452832
 H         -4.9973666463        0.6070114853        3.3515226493
 O         -6.3695603444        0.8066562129       -0.1051567667
 H         -6.0203178305        1.6968901236        0.0062453096
 H         -7.2979268937        0.8932883493       -0.3215417235
 O          5.7418884883        2.5142152779        0.2101861817
 H          6.1648338795        1.6840169172        0.5233220419
 H          5.5329725536        3.0312322008        0.9896870479
 O         -1.3904298259        2.7530502586       -1.6816650034
 H         -2.2797882013        2.9398655217       -1.9898750134
 H         -1.3932202874        2.9201896108       -0.7233695312
 O         -5.3474250408       -1.0413940944       -2.3307403082
 H         -4.5781115048       -1.5544621402       -2.6067413135
 H         -6.1179017999       -1.4355271823       -2.7400342014
 O          3.4828312422       -3.4986475143       -1.2512249352
 H          4.1115293691       -2.8169980479       -0.9240724457
 H          4.0062610453       -4.1941446385       -1.6476348203
 O          4.2267572784       -0.2641871596       -2.6097916179
 H          5.0740187551        0.0648218746       -2.9332874752
 H          3.8369898872        0.5040389936       -2.1470656049
 O          4.2592394826       -3.0080290024        2.0144146037
 H          4.8142204741       -2.7141729501        1.2853072717
 H          3.7812400869       -3.7839145803        1.7098366602
 O          6.5282798149        1.1633450679       -2.2144632158
 H          6.2601927697        1.7905858610       -1.5316302381
 H          7.3827654164        1.4520569420       -2.5303505023
