  241

 H          0.0000000000        0.0000000000       -0.0000000000
 O         -0.7149329035       -0.4844479936        1.1937736061
 H         -0.7773151411        0.0140414890        2.0293349038
 H         -1.5901759439       -0.8799533401        1.0208617517
 O         -3.0937238886       -1.6998690275        1.0599114897
 H         -3.4808840782       -1.2377285549        1.8294096539
 H         -3.7292408710       -1.6139884782        0.3267496475
 O          1.7132319413       -0.3590090522        2.7970888769
 H          1.9862774749       -0.2401003698        3.7265358390
 H          1.4537127074        0.5030364586        2.4368163003
 O         -2.2173772169       -0.1725380818       -1.4461089143
 H         -2.0766120067       -1.1318909882       -1.3381733054
 H         -1.7725828690        0.0524086475       -2.2818637801
 O         -1.4613131426        1.9422439594        0.2105130490
 H         -1.7081828034        1.3017756891       -0.4787614061
 H         -1.6811768717        2.8466016572       -0.0988314796
 O          0.4149998391        0.1996865400       -0.9270489152
 H          0.5291083077       -0.6739876407       -1.4755587523
 H          1.2962171280        0.6607578319       -0.8445977958
 O         -1.7088343036       -2.8092494063       -1.1327020696
 H         -0.9861265841       -2.7446501099       -0.4670764904
 H         -2.5024951548       -3.1289511802       -0.6796588572
 O          0.3116315874       -2.8717184944        0.5579769190
 H          0.0842404902       -2.5268528788        1.4454597905
 H          1.1296732095       -2.4017213142        0.3007689478
 O          3.3287539418        2.1902450161        3.0150250081
 H          3.9252710796        1.7197818380        3.6388028159
 H          2.4815339571        2.2838440296        3.4877144601
 O          0.7989327912        1.9809165806        1.6101261431
 H          0.9052512416        2.9420179658        1.7078989590
 H         -0.0390615439        1.8847902735        1.1109020175
 O         -4.8090556532       -1.5840291011       -1.0992484360
 H         -5.4513870369       -2.2757832748       -0.9316616008
 H         -5.3025524554       -0.8303889658       -1.4959422380
 O         -2.8189929575       -4.0834228810        2.3302212002
 H         -2.0916818253       -4.5619325964        1.8873021952
 H         -2.9873219492       -3.3067295531        1.7603886666
 O         -3.0478500446        2.0108803994        2.2873461141
 H         -3.9489638437        2.1514733099        1.9361903188
 H         -2.4770864416        1.9049204886        1.4846624733
 O         -4.2023460256        0.9651224523       -0.0423294105
 H         -4.4638208319        1.6362001504       -0.6844798089
 H         -3.5545570445        0.4145154168       -0.5185858392
 O          0.7230828197       -1.8177446971       -2.3524518767
 H         -0.0814269502       -2.0323729366       -2.9040192518
 H          1.0190254539       -2.6606022934       -1.9502606278
 O         -0.7098380102        0.5540459070       -3.5368128207
 H         -0.7249154773        0.1241738100       -4.4155923770
 H          0.2175756978        0.7817959665       -3.3509996942
 O          2.3655222238        1.7518888219       -0.4987741444
 H          2.0118919020        1.8556181838        0.4086706398
 H          3.2718468036        2.1212508994       -0.4926871369
 O          0.9720373407        4.6186129963        1.1117495300
 H          1.9501322904        4.6623311082        1.2033847759
 H          0.7724828661        4.3045815579        0.1920865072
 O          0.5537251775        3.6040261641       -1.2677246100
 H         -0.2665076086        3.2488946859       -1.6508541046
 H          1.2060920608        2.8850522316       -1.2413286735
 O          1.8598231192        1.3389019385       -3.2896407899
 H          2.4827782246        0.6061700609       -3.1254907269
 H          2.3139722417        2.1557030208       -3.0074442068
 O         -1.1214723763       -2.4713793123       -4.0160434269
 H         -2.0476068580       -2.2598604128       -3.7821877404
 H         -1.0599203307       -3.4336665822       -4.1636983860
 O          3.3355304625       -0.7859297543       -2.5585618577
 H          3.6929406145       -1.5817905948       -2.9874758009
 H          2.8939434808       -1.0858516082       -1.7349510465
 O          3.9164407348        0.3488457594        1.1392533673
 H          3.6327933720        1.0643205697        1.7374025189
 H          4.5543531264       -0.1817210832        1.6606497979
 O         -0.9493482999        0.7618176310        3.5617712375
 H         -1.7205446209        1.3324873884        3.4563783735
 H         -0.1801297245        1.3602234272        3.7115898868
 O         -2.7324021896        4.7375855037        2.4840268134
 H         -2.9523771691        3.7936982548        2.5830297380
 H         -2.5157281636        4.8328171672        1.5387366827
 O         -2.2584418379        4.4419036769       -0.1664759721
 H         -1.8416720088        4.9812421175       -0.8749490437
 H         -3.2119072890        4.3928634864       -0.3409329530
 O         -1.7145535388        2.8082258474       -2.5613915666
 H         -1.4172481914        1.9764301372       -2.9868795531
 H         -1.5950468092        3.5037620669       -3.2484807329
 O          2.5317609533       -1.5125947981       -0.1343047081
 H          3.2306995473       -2.1941923779       -0.1824918467
 H          2.9201030858       -0.7807384053        0.3956676809
 O         -0.0089263848       -2.3505274662        3.1306806858
 H         -0.8379199133       -2.1627469499        3.6078122774
 H          0.5333900476       -1.5355043622        3.1058057901
 O          0.9753892295        2.4134567393        4.3506933022
 H          0.7468155300        2.2711740386        5.2991296293
 H          0.5804784066        3.2663513197        4.0943180487
 O          1.5092329840       -4.2471718186       -1.5989050028
 H          1.9300397538       -4.4054849018       -0.7354205464
 H          0.6683890553       -4.7517062767       -1.5842475702
 O          3.2039871921       -2.5898238174        2.4381558746
 H          3.0521133928       -2.9191762911        3.3427482669
 H          2.6670936686       -1.7765014855        2.3704343806
 O          3.5587822069        4.4976424428        1.7004827150
 H          3.5697032540        5.1762596276        2.3835526668
 H          3.5532369343        3.6524437915        2.2049323080
 O          4.4828329723       -3.3029582459       -0.6910430807
 H          4.1580540833       -4.1341705160       -0.3303680116
 H          4.4706047089       -3.3755769316       -1.6608092032
 O         -0.9210931737       -5.3492097878       -1.5640447352
 H         -0.9654897776       -5.6729845998       -0.6544299832
 H         -1.3254523261       -4.4518910965       -1.5523175608
 O          5.3208005128        0.3739463749       -1.2193064103
 H          4.8459150626        0.5769753080       -0.3927168437
 H          4.6557199825       -0.0734675697       -1.7826815610
 O         -0.6439871492       -5.2739221714        1.1716848119
 H         -0.1917864332       -4.4473967584        0.8895562425
 H         -0.1653071790       -5.5511877168        1.9643918236
 O          3.1841228439        3.6462532878       -2.6452980771
 H          3.8042812095        3.5453744149       -1.9045370064
 H          2.6325937011        4.4126658343       -2.3930908046
 O         -0.4294956828       -0.6388584797       -5.9507317467
 H          0.3635588827       -1.1316262739       -5.6361812025
 H         -1.1363551311       -1.2881271703       -5.9339745790
 O         -4.3327474001        2.5836122812       -2.2978334368
 H         -4.7055852387        3.3505018255       -1.8481178205
 H         -3.3505621108        2.7164529925       -2.3237553256
 O         -3.6454990368       -1.7917537094       -3.5594337584
 H         -3.6398298898       -0.8932487731       -3.9420118654
 H         -3.9139492617       -1.6856272202       -2.6279495939
 O          1.7621782617       -1.6769360636       -4.8623381069
 H          2.5240716786       -1.0996201272       -5.0632809534
 H          1.5485388094       -1.5268831959       -3.9211859838
 O         -0.4870102438       -0.6652420965        5.7857771450
 H         -1.1098472961       -1.3940422942        5.8372944614
 H         -0.7141765396       -0.1925122045        4.9551946688
 O         -3.5901520541        0.7804228696       -4.4441888204
 H         -3.8806461786        1.4423248128       -3.8075557945
 H         -2.8418951678        1.1808129199       -4.9152006531
 O          1.3559374099        4.3299714395       -4.9583336622
 H          2.0078980547        4.1964382728       -4.2634593676
 H          1.3650463420        3.5281997572       -5.4966510894
 O         -0.3300647817        4.6441024648        3.4778060632
 H         -1.2498555078        4.8593774834        3.1790125362
 H          0.1765520036        4.7222753319        2.6485194463
 O          4.6393361385        3.1424427454       -0.3752459529
 H          5.3839491229        2.6588543326        0.0183842195
 H          4.3869520231        3.8095271367        0.2834390724
 O          2.6119925970       -4.6921960227        0.8766064407
 H          2.8074465256       -3.8925761898        1.4144578142
 H          2.2167222265       -5.3208592222        1.4822032819
 O          4.3111444486       -3.1766549886       -3.4399088452
 H          4.9963835113       -3.0819991477       -4.1005341686
 H          3.5866815127       -3.7125527130       -3.8423128429
 O          4.6700017603        0.5023130316        4.5365292706
 H          5.1000258789       -0.1644098138        3.9798576009
 H          3.9660880505        0.0534028437        5.0235239340
 O         -1.2775076861        4.5483731256       -4.5000325101
 H         -0.3060583690        4.5906743902       -4.6430444555
 H         -1.6020099204        3.9465935558       -5.1853743313
 O          1.0957238940        1.7024950524       -5.8284008158
 H          1.4541960615        1.4992977539       -4.9333664632
 H          0.9547415396        0.8550226137       -6.2607766658
 O         -1.5915411331        2.1662863830       -5.8457113254
 H         -0.6249148897        2.0054730286       -5.7665842599
 H         -1.8297732218        1.8664778917       -6.7222935412
 O         -4.0357983013       -0.3216318811        3.1954124703
 H         -4.9090654401       -0.3208447481        2.7366598227
 H         -3.6047176083        0.5142786752        2.9176885619
 O          5.5470623511       -1.2347519008        2.5321682412
 H          6.1079614581       -1.4232773830        1.7441711443
 H          4.8584766716       -1.9253641889        2.5319344221
 O          2.2551250893       -0.7927313298        5.3721235389
 H          1.3506967925       -0.6958422963        5.7146610229
 H          2.4141388278       -1.7475942452        5.3389434169
 O          6.5604957605       -1.6150404791        0.1161356439
 H          6.0149244166       -2.3665955091       -0.1555663440
 H          6.2641313010       -0.8783774670       -0.4586133460
 O          2.0389093562       -4.3173802276       -4.2763723830
 H          1.8250846653       -4.3182609751       -3.3258720828
 H          1.8044592473       -3.4342935791       -4.6230649151
 O          3.7019646861        0.1061937509       -5.3512560397
 H          4.2399901674        0.6152474605       -4.7074320048
 H          3.6322300301        0.6594906358       -6.1286978738
 O         -5.6748390583       -3.1014691778        1.1244560239
 H         -5.7682866155       -3.5382078774        1.9708086906
 H         -5.0106037720       -3.6131269412        0.6275348869
 O          0.7744339010       -4.8474483225        3.5320566317
 H          0.0353435625       -5.1372848989        4.1007878739
 H          0.5194959575       -3.9265770078        3.2889822801
 O         -3.8044236312       -4.4400211813       -0.4220978256
 H         -3.6386453857       -5.3236485937       -0.0909863599
 H         -3.8626919178       -4.5156454649       -1.4023491947
 O         -3.6814632712       -4.5290870688       -3.0881079370
 H         -2.9448868063       -4.9213173866       -3.5649121811
 H         -3.7866600330       -3.6285732072       -3.4297957415
 O         -6.0159728500       -0.2962406575        1.4656912139
 H         -6.1152247437       -1.2350699637        1.2539380985
 H         -5.4293767180        0.0851424378        0.7742821604
 O         -2.2081346555        3.1244456885        5.0804106585
 H         -2.6428274148        3.8307551557        5.5601639785
 H         -1.5620900338        3.5651225965        4.5066725897
 O          2.6279417169       -3.5327164629        4.8931212930
 H          3.3003292408       -4.0816700070        5.2909346809
 H          1.9405751192       -4.1353053983        4.5151604745
 O         -0.1961356759        1.9465450460        6.6517195644
 H         -0.2716098240        0.9815408889        6.6761825066
 H         -1.0461121978        2.2732233751        6.3187370932
 O         -1.6140871974       -5.0634242013        4.7337880847
 H         -1.8034856812       -4.2745944582        5.2483675584
 H         -2.2084876119       -5.0277826488        3.9731037537
 O         -2.4217996404       -2.2415720119        4.3283114212
 H         -2.6644349031       -2.9474795442        3.6983612936
 H         -3.0012156304       -1.4987321065        4.0979840820
 O         -0.7255991209       -5.1176100448       -4.2826690365
 H          0.2059307333       -5.1084000171       -4.5480409278
 H         -0.7471429697       -5.4968966830       -3.3925905302
 O         -4.9822129712        4.1783366796       -0.1369269736
 H         -5.3233645374        5.0365474100        0.1130007511
 H         -5.2535981536        3.5694481161        0.5772348935
 O         -5.9751601085        0.3368963556       -2.5186109302
 H         -5.5138228670        1.1871170071       -2.4551145572
 H         -5.9185178420        0.0703889278       -3.4387158463
 O         -5.6903542946        2.5397847974        1.9449831948
 H         -5.6002708236        2.5927429047        2.9171944404
 H         -6.1717024149        1.7246430772        1.7629034384
 O         -1.0544125741        5.8600039054       -2.0621237789
 H         -1.3763950621        5.6968141825       -2.9562743172
 H         -0.1343421372        5.5388393416       -2.0629592697
 O          5.0338643574        1.7373161941       -3.6867419574
 H          5.3625782508        1.4205993341       -2.8326967096
 H          4.5351580722        2.5422559170       -3.5095252565
 O          1.7776865609        5.8972525626       -2.1613482934
 H          1.8827219714        6.5156199909       -2.8826205762
 H          1.5566266781        6.4181639323       -1.3550720579
 O          0.6578098884        7.0651811650       -0.0511110190
 H         -0.2168719358        7.0581407137       -0.4522643013
 H          0.6839245549        6.3059614771        0.5577058306
 O         -4.8633121564        2.1574162994        4.5019136234
 H         -3.9541082885        2.4651711206        4.6239320988
 H         -4.8304236137        1.1973918814        4.5641303739
 O          2.4313190535        5.1167871883        4.1297307433
 H          2.6033863132        4.5437816901        4.8784191626
 H          1.4954032489        5.3415827476        4.1531450163
 O          6.4466999783        1.7045719526        1.1604784007
 H          6.3849178040        1.4690572406        2.0885385658
 H          6.9160592270        0.9938449772        0.7170887101
