  211

 H          0.0000000000        0.0000000000       -0.0000000000
 O          0.8791586237       -0.8947753204       -0.8821316511
 H          0.8487117185       -0.6865934436       -1.8368154467
 H          0.6719598426       -1.8432883994       -0.7881138571
 O         -0.4791886682        0.4925024877        0.7484582057
 H         -0.5098125114       -0.1706220084        1.5378385997
 H          0.0521212137        1.3218435955        1.0498386174
 O         -0.9447380847        1.3870593122       -1.8448068164
 H         -1.0982843550        0.4301943869       -1.8208884386
 H         -1.6019078602        1.7434714250       -1.2104050531
 O         -2.7140847997       -0.8029794370        1.3834824777
 H         -3.5092522318       -1.3031577726        1.6391962443
 H         -2.8620390467        0.1019626399        1.6727631127
 O          0.7057372343        2.5165080280        1.6125159411
 H          0.8500538960        2.3630884649        2.5823840309
 H          1.5624412689        2.8422235460        1.2577700256
 O         -2.2951091564        4.2400581056       -2.2211923282
 H         -1.6829343639        4.8035044847       -2.7458120820
 H         -1.7822510534        4.0141574147       -1.4233804633
 O         -2.8195711856        1.9552219586       -0.0738944165
 H         -3.3760063143        2.7282240309       -0.2639531292
 H         -2.4858888131        2.0484757322        0.8394834792
 O          1.5066660374        2.0709783638       -1.0574280753
 H          1.5814626746        3.0275127657       -1.2125768721
 H          0.5957080616        1.8196481428       -1.3108311851
 O          2.8558016766       -0.1977794233        3.4379220252
 H          2.5682220793       -0.1781160078        2.5047816692
 H          2.3907348531       -0.9536279400        3.8740507829
 O         -0.1990108866       -1.0965287194        2.6527245206
 H         -0.9359424704       -1.7345904818        2.8440759083
 H          0.5799682515       -1.6177567172        2.3743710883
 O         -0.8897494037        4.0136912937        0.0676179054
 H         -1.4210069382        4.6312734700        0.6136442999
 H         -0.4177989923        3.4425575953        0.7017527278
 O         -2.0208897957        2.1022739221        2.4920900445
 H         -1.7016174542        1.5062268503        3.1889317346
 H         -1.5887076293        2.9488132555        2.6920278644
 O         -1.8758854121       -1.0922582435       -1.1222178601
 H         -1.7809003659       -2.0376166787       -1.3448785346
 H         -2.2046355525       -1.0346903855       -0.1980477781
 O         -0.9402615031        0.6176593149        4.5520973860
 H         -0.1118757372        1.1209369412        4.6946660649
 H         -0.6514958954       -0.0787640887        3.9268029102
 O          2.5992308903        0.3964461755        0.7964597841
 H          2.3749875353        1.1883868974        0.2782775048
 H          2.1355245292       -0.3188632919        0.3288676875
 O          2.0155351480       -2.2153151864        1.4784493467
 H          2.5413504085       -2.7901718856        2.0701774457
 H          1.4030785313       -2.8091130032        0.9971518720
 O          0.8050196457       -0.2869283577       -3.4781373585
 H         -0.0224554934       -0.6203437001       -3.8907476008
 H          1.0241078285        0.5041790844       -3.9891340796
 O          0.6066392595       -3.4914891153       -0.3413944984
 H          1.1160121221       -4.0920805644       -0.9062433466
 H         -0.2029512986       -3.9939013442       -0.1137742065
 O          0.6553161270       -3.8066887926       -3.4478718500
 H          1.3766043575       -3.1688938903       -3.2650989690
 H          0.9832840100       -4.6502565368       -3.1163756256
 O          2.8277279965       -2.3027557784       -2.8925119616
 H          3.5761444511       -2.3962045333       -3.4865730396
 H          3.1676848894       -2.5299242260       -1.9941204719
 O          1.3331143376        4.7872762981       -1.1711113092
 H          0.4935156976        4.6402718880       -0.6721425956
 H          1.9200348361        5.2591812425       -0.5794412069
 O          0.2659061488        2.7418822455       -3.8690720953
 H          1.2277917532        2.6716445337       -3.7284469423
 H         -0.1807117012        2.2880505842       -3.1307565793
 O         -1.7175893912       -3.5697357813       -2.1671735893
 H         -2.4980993382       -3.5008936007       -2.7375978924
 H         -0.9196981721       -3.5986439104       -2.7309099657
 O          3.2975892334        0.2506026964       -1.9109029771
 H          2.5924038768        0.9149225373       -1.8116517773
 H          2.8943174780       -0.4989300192       -2.3722631476
 O         -1.4221640513       -0.8647086162       -4.7928442442
 H         -2.2039475566       -0.8183370013       -4.2052925882
 H         -1.4099417650       -0.0029725764       -5.2571206373
 O          1.2794336421        1.9744090224        4.0767331645
 H          1.8254619112        2.7131953639        4.4352986446
 H          1.8593696372        1.1916292180        4.0593308427
 O          3.0196884080        2.6921676422       -3.6264267546
 H          3.4323867466        1.8690436120       -3.9922256046
 H          3.3023014063        3.4057880036       -4.1982705478
 O         -3.4401264350       -0.3944088241       -3.0956719400
 H         -2.9344347307       -0.5839358761       -2.2670631686
 H         -3.3616587102        0.5654936458       -3.2533698462
 O         -4.7003756510       -2.4735374365       -0.6028486094
 H         -4.6838266987       -1.4957225373       -0.6158524943
 H         -4.5753147769       -2.7682627514       -1.5127606182
 O         -4.8149396665        0.2409683111       -0.4055805295
 H         -3.9397022110        0.6802778067       -0.3315248688
 H         -5.2565398934        0.7119752438       -1.1282282405
 O         -2.1829423210       -2.5920318788        3.5116161321
 H         -2.8380022317       -1.9154993118        3.7806322306
 H         -2.5681537152       -3.0370822467        2.7357941532
 O         -1.3652606403       -5.2500210265       -0.0959809822
 H         -1.6425885671       -4.9023356251       -0.9616004072
 H         -2.0015291808       -4.8597843058        0.5384507543
 O          0.3062774560       -3.8699095425        2.7607512719
 H         -0.6286453450       -3.9665962893        2.9841632049
 H          0.5695159638       -4.7370235288        2.3963531220
 O         -3.5762072968       -0.3905756362        4.2913778704
 H         -2.7936384100        0.1035145438        4.5562071038
 H         -4.0441089062        0.1508700783        3.6344807530
 O         -3.1949204553        2.2167597277       -3.7077992488
 H         -2.7790476491        2.9350372401       -3.1776508564
 H         -2.6956479868        2.1603061368       -4.5347035319
 O          3.0585905464        3.5241469192        0.9830085990
 H          3.5690221664        3.1104666983        1.7137573071
 H          3.5462652103        3.3052555297        0.1618809798
 O         -4.8223423372        1.0633751041        2.2709454760
 H         -4.9901325440        0.7693938802        1.3599220983
 H         -4.5430002266        1.9897612116        2.2136668811
 O         -0.2104504137        5.3682219865       -3.4086843479
 H          0.4385636731        5.3985995593       -2.6897368539
 H         -0.0392854556        4.5115463651       -3.8399288327
 O          3.7834573592       -2.7035680008       -0.4723252880
 H          3.1014391527       -2.4058816506        0.1710825563
 H          4.4996133475       -2.0498755673       -0.3813252048
 O          4.4154242129        2.6728423400       -1.1939343342
 H          3.9693346269        2.9696964086       -2.0029457801
 H          4.3148483083        1.7110851293       -1.2339599293
 O          1.7524233436       -2.4194175278        4.4868212247
 H          1.2573132532       -2.9856337121        3.8578139146
 H          1.0714106764       -2.1783687283        5.1406220131
 O          3.2360462954       -5.1733679759        0.5853929523
 H          3.5621157017       -4.3811942012        0.1212977827
 H          3.5043386222       -5.0361964488        1.5027693894
 O          5.1020836270       -0.5067205564        0.3743192480
 H          4.1972742410       -0.1219515579        0.4490302880
 H          5.2773082634       -0.8991965692        1.2481235794
 O          4.3729510222        2.2607512377        2.9283369014
 H          5.1527789177        2.1133424775        2.3449730089
 H          3.9698372772        1.4020867355        3.1040105011
 O          3.7111482889       -3.7018011128        2.9773772504
 H          3.2603610144       -3.5775885260        3.8222317226
 H          4.4327907611       -3.0523276792        2.9608476610
 O          5.1764107677       -1.3651014950        2.9636275466
 H          4.3367742623       -0.9061627093        3.2274098825
 H          5.8661721109       -1.0451733638        3.5434787451
 O         -0.5785544460       -1.9367499231        5.8066683814
 H         -1.1795164209       -2.3904510929        5.2011258375
 H         -0.7736898668       -0.9956638072        5.7052727402
 O         -0.6891488497        4.3030739429        3.4172305255
 H          0.2290416780        4.6064795662        3.2910044788
 H         -0.8318347641        4.0835892282        4.3512832293
 O          0.7273449825       -6.1726082136        1.4610139380
 H          1.5857448384       -5.9489809949        1.0713071575
 H          0.0419500962       -5.9901511165        0.7972206934
 O         -2.2904878084        5.5578482224        1.7332747425
 H         -1.7622124201        5.2507619585        2.4990367546
 H         -3.1240082766        5.0627654068        1.7944770693
 O         -3.1789970874       -3.7773282493        1.1999195554
 H         -3.6946355331       -3.2764381071        0.5306991488
 H         -3.8030486327       -4.3301674354        1.6714669007
 O          1.7049442152        5.3162115054        2.5795293164
 H          2.2145813112        4.7749454635        1.9538984778
 H          1.2534278290        5.9823018954        2.0425486356
 O         -4.5878216631        3.9279116082       -0.8547442711
 H         -5.1301455562        3.3424375519       -1.4043387817
 H         -3.8993320800        4.2974188028       -1.4382375898
 O          2.3219240160       -1.3504766691       -5.5514725659
 H          2.0297997812       -1.2908562702       -4.6260612914
 H          1.6667989852       -1.9542596253       -5.9617092469
 O         -5.5529613958        1.9204653593       -2.4743056670
 H         -4.7431343949        2.0402230166       -3.0127358311
 H         -6.2332356537        1.6197203059       -3.0740588695
 O          0.1447422420       -2.8305295271       -5.9942789343
 H          0.2688209735       -3.3858651518       -5.2097643353
 H         -0.5217560925       -2.1760055718       -5.7369101380
 O         -1.3527855834        1.6728467895       -5.7172338027
 H         -0.9821097021        1.6625625460       -6.5999839247
 H         -0.6423776868        2.0534136819       -5.1527860749
 O         -4.4834288126        3.8489286153        1.8185710571
 H         -4.6366769102        3.9299122664        0.8559937649
 H         -5.2679175970        4.1812564111        2.2521815385
 O          0.1242805671        6.6561841206        0.7330053203
 H         -0.7662700074        6.5545561123        1.0943634616
 H          0.0216098327        7.0282071954       -0.1436702134
 O          4.2161789225        0.6052218888       -4.7757944110
 H          4.8366678320        0.1403675061       -4.1918635546
 H          3.6947926456       -0.0921072295       -5.1966088791
 O          2.9337850793        3.9186336340        4.6589052845
 H          3.6809497999        3.5262769867        4.1844387199
 H          2.6139685724        4.6476192402        4.1100640619
 O          5.5593046020       -0.8806857931       -2.8272259748
 H          6.3897892576       -0.7937124854       -2.3614350001
 H          4.8817092086       -0.4717218182       -2.2626771729
 O          1.4048050544        1.1531526296       -5.9112136887
 H          2.1536081152        1.6835629334       -6.1804779556
 H          1.6967262010        0.2220636902       -5.9889221880
 O         -4.1101055572       -2.9568714708       -3.3616778918
 H         -4.4771861328       -3.2311313359       -4.2007097151
 H         -3.9917718424       -1.9878815259       -3.4013356655
 O          1.6673254400       -5.7078260436       -1.6347836393
 H          2.4177772103       -5.7634385938       -1.0256667194
 H          1.1092874829       -6.4681060768       -1.4608222281
 O          6.1427715108        1.9122194280        0.9818966207
 H          5.9475359494        1.0081423974        0.6659685758
 H          5.8956982999        2.4975474905        0.2582005635
 O         -5.0794824789       -1.9550708876        2.1581384934
 H         -5.5280101549       -1.2341033364        2.6047993752
 H         -5.5125765382       -2.1007465385        1.3113682989
 O         -1.8149692552        3.1386929457        5.5994281336
 H         -1.5860776003        2.2068818393        5.5087055348
 H         -2.7564117223        3.2084586986        5.4352442062
 O          1.4588745552        0.1684167493        6.0939691424
 H          1.8854118772        0.8484110322        6.6151817648
 H          1.2451855678       -0.5618834329        6.6764870231
 O         -1.9289777977       -5.5053718342        2.9653084319
 H         -1.3019608533       -6.1601214414        2.6451593827
 H         -1.9770873792       -5.5858647310        3.9175675238
