  252

 H         -0.5425054112       -1.1597996590        0.9180873600
 C         -0.6112510052       -0.5412956738        0.0100749182
 H         -0.5391308395       -1.1969144470       -0.8712436601
 C          0.5103658647        0.5037878337       -0.0094871836
 H          0.3911098456        1.1518924072        0.8600966293
 H          0.3944399221        1.1152669956       -0.9056411629
 O         -1.7891825170        0.2100258093       -0.0077307042
 H         -2.5646581754       -0.3620747641        0.0026734602
 N          1.8637421187       -0.1172780952        0.0059475209
 H          1.9871272141       -0.7237037740       -0.8163106224
 H          1.9839787968       -0.6890763205        0.8531041599
 H          2.5930828886        0.6072400318       -0.0077051378
 O          2.2201299046       -1.7571493384        2.0908286608
 H          1.5025322380       -2.2881619987        2.4864054513
 H          2.8127095306       -1.4878646466        2.8248829031
 O          0.1841620660       -1.7947751868       -3.8098793517
 H         -0.6154807559       -1.2907724951       -3.5420628526
 H          0.7527285596       -1.1022143831       -4.2005372397
 O          3.6849106842        1.6401541113       -0.9277684970
 H          3.7717688439        0.9841691374       -1.6544841653
 H          3.1557075443        2.3687427657       -1.2940182735
 O         -1.6909717440       -0.0717418948       -3.0575963963
 H         -2.3531881350       -0.5120198558       -2.4693138235
 H         -2.2135229293        0.4227291122       -3.7164486748
 O         -3.5660600677       -1.3364133244       -1.7926856147
 H         -3.6236981402       -1.9686629793       -2.5512264702
 H         -4.2612459735       -0.6756126818       -1.9129536763
 O          1.7625467619        3.3901272176       -1.5869266899
 H          1.2325512039        2.8137949744       -2.1651970931
 H          1.4773426237        3.2350875359       -0.6453574858
 O          0.2964275696        0.1261596482        2.9301537360
 H          0.3534232463       -0.3503523874        3.7828453358
 H         -0.4123272191        0.7795441286        3.0143046086
 O          1.8464811036       -2.1413759866       -1.6963988129
 H          1.4070400699       -2.7119094453       -1.0462373177
 H          1.2657796852       -2.1055311050       -2.4769723979
 O          1.1549079817        3.2924425727        0.9262950182
 H          1.3679372163        4.2438687206        0.9809157405
 H          1.7182122132        2.8402167772        1.5856215301
 O         -3.4506277741       -3.0882172301       -3.7590187651
 H         -4.2546814331       -3.5644508751       -3.5084599634
 H         -2.7002568751       -3.6814014115       -3.5832161214
 O         -1.0912170998       -4.2173291228       -2.8101215328
 H         -1.4791990180       -3.9242370375       -1.9597475107
 H         -0.6039601333       -3.4690637855       -3.1741995613
 O         -2.1619400642       -3.3300897987       -0.4762074038
 H         -2.6922258400       -3.9100915594        0.1204475514
 H         -2.7181409570       -2.5546634310       -0.6433204722
 O          4.6099740635       -0.8426207226       -0.4166436111
 H          4.4968559923       -1.7825359443       -0.2189098519
 H          5.4366387758       -0.7408483313       -0.9263486326
 O          0.3785346747       -3.4479437772        0.2144023946
 H          0.4679690461       -3.5098478592        1.1749788806
 H         -0.5829624576       -3.3432325340        0.0419222455
 O          4.6744098281        0.7878070546        1.5973464983
 H          4.6948087786        0.2112583014        0.7892741596
 H          4.6197880930        1.7160189784        1.2906457208
 O         -1.4341329240        2.0957920045        1.9125490774
 H         -2.2588482916        2.3103859070        2.3966327657
 H         -1.6592056637        1.3735422306        1.3027973287
 O         -5.1125908687        0.6394944367       -0.3419925525
 H         -6.0139799979        0.2668700306       -0.3111050449
 H         -5.1216298032        1.4741990282        0.1486664763
 O         -1.7901593159       -1.9535513476        2.8443761036
 H         -2.5847123872       -2.4892475237        2.9927826486
 H         -1.7938565558       -1.2822870796        3.5536122172
 O         -3.7776200098        2.8149984774        2.9371086685
 H         -3.4386022563        3.7155276683        3.1407954053
 H         -4.3447870214        2.9152663880        2.1494258128
 O         -2.9776723713        2.2697749925       -1.3654703981
 H         -2.4255016581        1.6227423377       -0.9036563337
 H         -3.6860686480        1.7544778230       -1.7790140339
 O          2.3472044784        1.6861427298        2.7754243742
 H          3.1158062868        1.2220145431        2.4107514189
 H          1.5912839359        1.0367751731        2.7802110182
 O          4.4471776680        3.4792819238        1.3659613198
 H          5.4133052479        3.6033478197        1.5466956370
 H          4.3002292217        3.9164309475        0.5047616677
 O         -1.6792078932        4.3649096672        0.4586064160
 H         -1.0067527943        4.6487774171       -0.1859904249
 H         -1.4325039134        3.4876391911        0.8154352501
 O          6.8456273099       -0.1399894868       -1.7265189625
 H          7.6681254218       -0.6431793529       -1.5583899723
 H          6.9665131614        0.7216768523       -1.2747107695
 O         -7.3637157778       -0.7787825295       -0.0538211428
 H         -7.3654782423       -0.4948157870        0.8822003533
 H         -6.9534930780       -1.6711278208       -0.0257891129
 O          6.9421980197        1.1028565603        3.0419120930
 H          6.5857042401        1.2975869371        3.9189842441
 H          6.1583937457        0.9381012226        2.4770096744
 O          3.8199991372       -3.2600678153        0.6503737813
 H          3.4975864047       -3.7715381454       -0.1188000497
 H          3.0804282031       -2.7452001070        1.0421613557
 O          3.6751714572       -0.0137827694       -3.0144292456
 H          4.4696582514        0.2910042198       -3.4913571840
 H          3.8739414304       -0.9416942535       -2.7505732734
 O          6.0427595181        0.7667061888       -4.0445976462
 H          6.4365943209        0.4010558055       -3.2086818056
 H          6.5430028895        0.3972666669       -4.7709113071
 O          6.2840252980        2.3375670135       -0.8189020580
 H          5.3367681904        2.0850023129       -0.7754377206
 H          6.3523872827        2.8790370479       -1.6110525773
 O          1.6005121086        0.4081709997       -4.5558754641
 H          2.3916086836        0.2007211590       -3.9960577486
 H          1.0485842510        0.9884993810       -3.9889157482
 O          0.0223289370        1.8976490548       -2.9712579813
 H         -0.5542100774        2.6582335462       -3.1910758972
 H         -0.6028509647        1.1454193450       -2.8544949611
 O          0.3062306342       -3.4587651611        2.9497899861
 H          0.6175067558       -3.5491923403        3.8544266137
 H         -0.5159156246       -2.8897819002        2.9653051141
 O         -3.8936099736       -1.2936501846        0.8985979942
 H         -3.8335719740       -1.0380879859        1.8315040489
 H         -4.3722644081       -0.5532503376        0.4582862172
 O         -5.8171776335       -2.9858441792        0.1615282914
 H         -5.7243379747       -3.2670342214       -0.7695631340
 H         -5.0258248225       -2.4357756675        0.3779069548
 O          6.4489063874       -2.8291904213        1.2103402537
 H          6.7682958384       -3.1510217744        0.3445058941
 H          5.4877283460       -2.9383251669        1.1376166933
 O         -6.7311809756       -1.1300996521       -2.8673563311
 H         -7.1566961035       -0.8979937520       -2.0351569483
 H         -6.0779407028       -0.4312778814       -3.0585268750
 O         -5.8421175478       -3.5802066382       -2.4814328280
 H         -6.5422394987       -4.1879675037       -2.7180486192
 H         -6.1675404329       -2.6751119039       -2.7240124478
 O         -4.0855310733        5.2732713746       -0.0592427544
 H         -3.1920522826        4.8607350103        0.0415264677
 H         -4.0961622078        6.0216783264        0.5384951128
 O          0.0435402926        4.0708412777        3.4428648300
 H          0.9802566646        4.3164386776        3.4246855702
 H         -0.1053028356        3.5325093763        2.6507786721
 O          7.0675088776        3.4075434635        1.5573431698
 H          7.0499109977        3.0245113390        0.6612499675
 H          7.2499469068        2.6661037718        2.1607333342
 O          4.1852574259       -0.9016931288        3.6814763307
 H          4.5371347613       -0.4666765735        2.8909732821
 H          4.7598949032       -1.6878546871        3.8379497191
 O          5.6643226956       -3.0902556189        3.8608679707
 H          5.1089674957       -3.8711318594        3.7340864849
 H          6.2491933903       -3.0648626386        3.0894427359
 O          8.1951048302       -0.7680786184        1.4703326811
 H          7.9493295269       -0.2050402569        2.2189203259
 H          7.5264295304       -1.4776958452        1.4401245700
 O          0.7342815709       -1.0722350530        5.2872500529
 H          1.3759457017       -1.7873559489        5.1546900117
 H          1.2441770087       -0.2936199951        5.5719553967
 O          4.0319080231        4.7777074120       -1.0134069709
 H          4.7236580107        4.5942757174       -1.6603429275
 H          3.2241374092        4.4126474759       -1.4072532361
 O         -1.8056558787        3.8636777826       -3.0709844692
 H         -2.2536562154        3.3308544607       -2.3604083744
 H         -1.3491145410        4.5858524763       -2.6209433368
 O          5.1918223668        3.3153892829       -3.1905956966
 H          5.6126354187        2.5456795511       -3.5996746288
 H          4.2997919309        3.3287228299       -3.5702531347
 O         -4.8570553584        0.8441781622       -3.0604729992
 H         -5.4363464778        1.5821648429       -2.7621771318
 H         -4.4056430434        1.1377038520       -3.8621378602
 O         -2.4933091252        5.1497348052        2.9571555037
 H         -1.7016201274        5.0010030229        3.4903054541
 H         -2.1799391520        5.0463157941        2.0416310836
 O         -4.1391499011        0.1405343200        3.2709313175
 H         -3.6469238585       -0.1750885304        4.0390185749
 H         -3.9929675267        1.1013580026        3.2565683686
 O         -6.1951885445        2.8699017894       -1.9890820437
 H         -5.8311251087        2.9025817858       -1.0890693074
 H         -5.7733031401        3.6274207279       -2.4462821852
 O         -2.8356162426        1.7251311585       -4.7562351165
 H         -2.2200269786        1.4389367017       -5.4512187957
 H         -2.5534995842        2.6017924085       -4.4704101601
 O         -5.3605201547        3.1075525773        0.7443442094
 H         -5.0180259673        3.9872246293        0.4704277981
 H         -6.2372627752        3.1948699752        1.1575798933
 O          2.0360507714        1.3488015534        5.4952554616
 H          2.9107596823        1.4656116975        5.8780005729
 H          2.1396862920        1.5723414981        4.5481955077
 O         -0.0198647410        5.3937216939       -1.4225823153
 H          0.7097916276        4.7674168281       -1.6072663719
 H          0.3754764289        6.0878875870       -0.8878445145
 O         -1.9817489359       -0.3247193269        4.9988544602
 H         -1.3336376496       -0.8038477198        5.5263536602
 H         -1.6558654822        0.5991235428        5.0068464708
 O         -6.7564834631        0.0857793242        2.4351316525
 H         -5.8381715546        0.1435585351        2.7592542255
 H         -7.1039687514        0.9912352572        2.4182431312
 O          2.6760295282        3.0560242563       -4.3491051160
 H          2.4414278964        2.1900476444       -4.7092879511
 H          2.2730790122        3.7188741888       -4.9083130228
 O         -8.4265698428        1.8070354833       -0.6891934443
 H         -8.3197330870        0.8492112542       -0.7098850745
 H         -7.8068584753        2.1859406298       -1.3331716564
 O          3.2541925241       -4.7075717156       -1.5227476569
 H          3.8973149915       -5.4139078390       -1.5869693299
 H          2.3595026829       -5.1274418348       -1.4995024733
 O          0.7961157761       -5.6313212691       -1.2322653468
 H          0.6026806399       -4.8736278153       -0.6376230263
 H          0.1789990659       -5.5195049403       -1.9694109772
 O         -0.8240763805        0.4294909150       -6.0792165860
 H          0.0837261387        0.4427637030       -5.7520171934
 H         -1.0868258367       -0.4910000772       -6.1403757806
 O          9.0659740609       -1.5197020098       -1.1081044102
 H          8.9469132753       -1.4826894547       -0.1463778084
 H          9.7421445520       -0.8659127976       -1.3042296398
 O         -7.7893998715        2.5889008136        1.7454914581
 H         -8.1185206826        2.3094950650        0.8513750763
 H         -8.5242074698        3.0179468138        2.1825505974
 O         -0.6722952075        1.9960859060        5.0419664923
 H         -0.5352044921        2.8145117192        4.5322800522
 H          0.1707564540        1.8198473988        5.4762491351
 O         -4.5440662128        4.8120877479       -2.7834123171
 H         -3.6721129015        4.5827751177       -3.1277020911
 H         -4.3991346839        5.1417840402       -1.8838009265
 O         -3.7488122404       -4.6977580651        1.1368080661
 H         -3.7214639398       -4.3181947783        2.0321988231
 H         -4.6275991592       -4.4822432615        0.7990174273
 O          2.7932346596        4.6888389496        3.0817258036
 H          3.2536116048        4.7882329929        3.9137967364
 H          3.3988213076        4.1845592812        2.4877309832
 O          1.9879921550        5.8664839059        0.6847987201
 H          2.7984221861        5.7921624748        0.1641821966
 H          2.2628497358        5.9111212220        1.6098858259
 O         -4.0204161758       -3.3700984297        3.5289942366
 H         -4.9392513704       -3.0551115756        3.3307127791
 H         -4.0647475359       -3.8053691003        4.3795277012
 O          2.5143221116       -3.1046535184        4.7470022494
 H          2.8682685053       -3.7271921157        4.0708253108
 H          3.2559993687       -2.9142399103        5.3223755895
 O          4.7597655659        1.5651429676        4.7483030322
 H          4.3605471844        2.0780312131        4.0391880905
 H          4.5370518657        0.6337617793        4.5618963155
 O          3.5991819263       -4.7368336944        2.9128177123
 H          2.9171354739       -5.3857986789        2.6794679736
 H          3.7852440152       -4.2759746801        2.0713222770
 O         -6.4740924454       -2.6845596644        2.8579753946
 H         -6.4745154593       -2.9407756262        1.9254921629
 H         -6.7218920954       -1.7505918209        2.8857850566
 O          1.4078694900       -5.9231414725        1.7957585137
 H          0.7058348502       -5.3709851618        2.1564336308
 H          1.1537478377       -6.1768745881        0.9039625567
 O          4.4941638428       -2.5631152020       -2.8088331252
 H          3.9255783972       -3.1572841828       -2.2909058187
 H          4.1885240060       -2.6731007654       -3.7218048906
 O          6.8200493473       -3.3655907622       -1.4040580776
 H          7.6398163888       -2.9266631435       -1.6493600274
 H          6.1178895381       -3.0211502177       -1.9787286913
 O          8.9041567588        1.2377598297       -0.2920766970
 H          8.6659593287        0.6016279610        0.4044952781
 H          9.1690622513        2.0436463502        0.1506548987
 O          2.8968683376       -2.4659850715       -5.0564923973
 H          2.0403351963       -2.8202722803       -4.8020405839
 H          2.7369670649       -1.6200779889       -5.4799590311
