  612
 
 H         -1.2741381640        0.9478277590       -0.9202183194
 C         -0.4725661875        1.2386435627       -0.2492521865
 H          0.2408087195        0.4183849941       -0.1951808359
 C         -1.0396081689        1.5713839832        1.1269473382
 H         -1.0091035603        2.6473723810        1.2473297995
 H         -0.4457461929        1.1160665317        1.9107081271
 O          0.1856025066        2.4018844801       -0.7454410556
 H          0.3351666943        2.3350713954       -1.7117430664
 N         -2.4336072725        1.1551313725        1.2706602363
 H         -2.5506720695        0.1126183320        1.1524387799
 H         -3.0147919405        1.6371638683        0.5593194996
 H         -2.7540903985        1.3914262357        2.2318418539
 O          2.9031753895        4.9346868780        1.0291727760
 H          2.3843743176        5.5855216514        1.5431930096
 H          2.4353862151        4.8144086586        0.1766123953
 O          3.5454185067        3.2672135520       -4.0893524903
 H          3.3932963704        4.2333586251       -4.2129059748
 H          3.6447995010        2.9196481592       -4.9865974985
 O          7.8026824894        3.0197875765       -0.9091287152
 H          8.3895940375        2.3962721094       -0.4707218216
 H          7.1495045824        2.5257906937       -1.4337365896
 O         -0.5844573987        3.7788332476        3.1509045199
 H         -0.1490005059        2.9899087409        3.5497276000
 H         -0.4937356964        4.5136519277        3.7743323408
 O         -5.3897533791        4.2505623731       -0.3106895178
 H         -5.5084119390        3.6006441263        0.4026070731
 H         -4.4321531671        4.4462779618       -0.2998680157
 O         -3.8758746314       -4.9133551292       -5.3090028872
 H         -4.6863981452       -4.3816764580       -5.3735771745
 H         -3.1458751485       -4.2790161644       -5.4704518791
 O          2.2104697570        3.0454448881        2.7444393196
 H          2.3529906067        3.5872887697        1.9426929368
 H          1.9420707987        2.1463949993        2.4907790155
 O          6.9062152450        5.5855811499       -0.9655438075
 H          6.3467071667        5.8334255221       -0.2154857142
 H          7.2346351857        4.7014056628       -0.7478616345
 O          1.8453459433        0.4730843273        2.0192395614
 H          2.3199341127        0.7420460701        1.2147265197
 H          1.2542528005       -0.2583645890        1.7549235122
 O         -3.2617014255       -3.1545667717       -2.2392105299
 H         -2.6655470152       -2.8779531480       -2.9443837983
 H         -3.5089482138       -4.0879749318       -2.3962249429
 O          2.1004281092        4.7885105869       -1.4561904670
 H          1.5844316216        4.1296808104       -1.9332819576
 H          3.0493430903        4.6302401070       -1.6785517705
 O          6.0760711050        1.7175372306       -2.6285866765
 H          6.4534532998        0.8721288325       -2.9309557156
 H          5.1160963751        1.5375269265       -2.5159221298
 O         -4.7490677531       -0.0320041106        2.0972028431
 H         -4.8750552074       -0.8734698505        2.5588768505
 H         -5.0234638945       -0.1857769814        1.1737908013
 O          0.4952346221        1.7015217837        4.3866089155
 H          0.3259847712        2.0603359002        5.2760752754
 H         -0.0517470166        0.8961971086        4.2749996542
 O          1.5742399894        4.8746362951        4.5919673441
 H          2.4751654078        5.2065761233        4.7514997231
 H          1.7196448434        4.1292811844        3.9692908088
 O          3.9396398995       -0.6706915735        0.3408625390
 H          4.6978196197       -0.4067073348       -0.1966546173
 H          4.1019645154       -0.3090019396        1.2357620665
 O         -3.9649518485       -5.2483700550        4.8826458286
 H         -3.0344241818       -5.1602878073        5.1418856404
 H         -4.4474135270       -4.5196356925        5.3175063599
 O          0.0957197532       -1.4344479984        1.5683123030
 H         -0.3003897130       -1.6458352333        0.6998552839
 H          0.1525506223       -2.2777717925        2.0426332262
 O         -1.0506344535       -0.4134444342        3.8410761284
 H         -1.0739771768       -1.1335777689        4.4890494012
 H         -0.7242522049       -0.7976433023        3.0054452287
 O         -1.8199225537        0.8587744261        6.4633834791
 H         -2.0084014975        1.3439960425        7.2642923719
 H         -0.8856490127        0.5662381135        6.5212709630
 O          6.2175333886        2.3565112522        5.1143550977
 H          5.7594576182        2.5970839123        4.2777572929
 H          7.0458706194        2.8573958062        5.1000930765
 O         -2.7745824419        4.7863082314       -0.0275328801
 H         -2.8306639878        4.5736911158        0.9265746525
 H         -2.8512069450        5.7549953498       -0.1097640711
 O         -5.4297482648        0.9219149450        4.6697628101
 H         -6.0093558920        0.9894167737        3.8739103136
 H         -5.9535529497        0.3519157933        5.2787157468
 O         -0.9152160162       -2.2301086779       -0.7883846587
 H         -1.6809807097       -1.6330911105       -0.9191194871
 H         -1.2261691197       -2.9928026169       -0.2808406494
 O          1.7201627002       -1.0690372750       -1.1430916568
 H          2.5200275881       -0.8520483114       -0.6310263595
 H          1.3752929248       -1.8898442173       -0.7428966879
 O         10.2532212897        1.6290036108       -0.1404076584
 H         10.7553025284        1.8759028409       -0.9405414611
 H         10.8651618397        1.1359281700        0.4385878921
 O         -2.8804846554        1.6010191092        3.8913091485
 H         -3.7812546814        1.3259012302        4.1281221303
 H         -2.2958438951        0.8422575313        4.0798456130
 O          3.5776335095        0.8838248831       -2.4205823689
 H          3.9612526190       -0.0114448727       -2.2938085739
 H          3.1244928308        0.8771225048       -3.2911848253
 O         -0.5732331815       -2.2720413586        6.0112174823
 H         -1.3856480350       -2.6135350698        6.4110635183
 H         -0.2957697038       -1.5016599329        6.5239895761
 O         -2.4657380751       -3.0491432183        3.3752899984
 H         -2.1670778460       -3.4126407441        4.2131765045
 H         -1.9777509335       -3.5309572087        2.6672029638
 O          0.1555839941       -4.9771727947       -6.7314708694
 H          0.8459697707       -4.3600380198       -7.0306835179
 H         -0.0922167484       -5.5311516863       -7.4696502922
 O          4.6780784645        6.8184161387       -2.6398121208
 H          5.0259184398        5.9917144305       -2.2697859681
 H          4.3491055912        7.3170856454       -1.8761837502
 O          0.5061228677        2.2749869153       -5.7004419961
 H          0.7993612191        3.0977659829       -6.1282380174
 H          1.2979866860        1.7157353641       -5.5847598701
 O          4.8983059813       -1.4086072105       -2.2868485980
 H          5.5507590986       -1.2068094787       -2.9710193197
 H          4.1831771540       -1.9171607822       -2.7132066208
 O         -1.2329788751       -4.1618987894        1.3127317111
 H         -0.4898211086       -4.7660077214        1.4713651146
 H         -1.9021806682       -4.6868743493        0.8321644308
 O         -9.3747038407       -1.9459207086       -0.9145316034
 H        -10.2804295032       -1.6224963258       -1.0790829916
 H         -9.4224722984       -2.7450241798       -0.3758072071
 O         -7.4098191903       -1.5090127740        1.7536001992
 H         -6.8875229107       -2.0122539349        2.3840241876
 H         -7.1137729972       -1.7906420931        0.8643555817
 O         -2.6157101859       -1.4602605042        1.1911148626
 H         -2.4805633168       -1.7174739480        2.1105124550
 H         -3.2843389524       -2.0830925115        0.8461108229
 O          1.0837069258        2.8670280784       -3.1962926553
 H          2.0373752425        2.8233890675       -3.4365823712
 H          0.6313545105        2.5055875721       -3.9861084307
 O         -1.5900147392        6.9099866909       -2.6458079710
 H         -2.1504696288        7.2842248185       -1.9597599379
 H         -2.1270630560        6.8035549509       -3.4443819787
 O         -7.2331342980        0.9703124409        2.7192178729
 H         -8.1388466483        1.1675051724        3.0130815795
 H         -7.2692384391        0.0746852693        2.3291350072
 O          9.0807949928        1.1376852451        3.9960066153
 H          8.4711792174        1.1403265021        3.2295139725
 H          9.1088756032        2.0598635236        4.2922696011
 O         -2.7733173814       -5.4791222177       -0.4015198173
 H         -3.0544290055       -6.4036422512       -0.2808298048
 H         -1.9660876656       -5.4816143159       -0.9419055137
 O          2.7008367000        1.8561651794       -0.1295953834
 H          1.8193040337        2.2434425150       -0.2760106308
 H          2.9596090009        1.4609773341       -0.9881065898
 O          5.1542401690        2.6054121196        0.3701902656
 H          5.6282345570        1.8036033240        0.1179630121
 H          4.2025340641        2.3855315885        0.2936047926
 O          0.5133292197       -6.6257715086        4.1355688860
 H          0.6084502015       -6.4282337402        3.1751384698
 H          1.3632218608       -6.3743537609        4.5237583805
 O         -6.1863867843       -6.9438625128        4.2761708412
 H         -6.1019269239       -7.2140077125        3.3500068273
 H         -5.3256202479       -6.5926019577        4.5420460859
 O          1.2550354717       -7.5340465702       -5.0779591735
 H          0.3120515203       -7.3352227937       -5.1344555360
 H          1.7188243018       -6.7706412967       -5.4537712542
 O          1.5905359414        4.5712289411       -6.7209936407
 H          1.9663941202        5.1965862119       -6.0892203414
 H          2.3462460224        4.0611293273       -7.0481544637
 O          4.6408251511        4.1957144401       -1.7890885869
 H          4.6001792520        3.6170964651       -2.5619706415
 H          4.9807201212        3.6821970113       -1.0343893989
 O          2.6007882632       -2.3595275413       -3.3112818888
 H          2.6223889500       -3.2849750316       -2.9932565060
 H          2.1771680365       -1.8361615370       -2.5959417482
 O         -1.9822889408        1.8250408940       -3.3086527664
 H         -1.2438069357        1.1849177291       -3.3002268666
 H         -1.6325091755        2.6428246227       -2.9192429973
 O         -1.7258470695       -3.3521843166       -5.6842500065
 H         -1.0377134217       -3.9766329419       -5.9790003915
 H         -1.3953205832       -2.9051894892       -4.8855970243
 O          5.5010279969        5.6118071555        1.3787003898
 H          4.6685537228        5.1429671774        1.1881819684
 H          5.2299067344        6.4165856479        1.8503374763
 O         -3.2857458198        6.2368484247       -4.7761290256
 H         -2.5159900129        6.0311217101       -5.3299322887
 H         -3.9387682247        5.5569143756       -5.0151416504
 O          4.6722938865        0.3145355888        2.7183842040
 H          5.5465346165        0.7338295380        2.6395600142
 H          4.1739126796        0.7628873465        3.4245684421
 O         -2.4776497721        3.6187703779        5.6317276392
 H         -3.3351126695        3.5651281003        6.0717532121
 H         -2.5062970422        2.8865425741        4.9722333429
 O          4.1151011730        3.3946440893        6.3420703604
 H          4.1040293027        4.2631272549        5.9196642951
 H          4.9994643482        3.0262393989        6.1393322408
 O          0.0898080188        0.1474463746       -3.0341714974
 H          0.7199869041       -0.0768629683       -2.3366539776
 H         -0.2894983552       -0.6984551338       -3.2986362260
 O         -1.0460553292        0.0782053526       -5.7987884775
 H         -0.7800689981        0.9994832443       -5.9411553455
 H         -1.4734603991       -0.2795223441       -6.6116824071
 O         -1.3202878716        4.2342599433       -2.1881160901
 H         -1.6555409756        4.3381350694       -1.2791165093
 H         -1.0584726532        5.1240476138       -2.4837473682
 O         -0.1958590044       -5.3103993836       -1.2359093472
 H         -0.0620934350       -6.1952310000       -0.8497370472
 H          0.3305677589       -4.6723768058       -0.7159514028
 O          5.4354957510       -4.4647362514        3.9056113001
 H          6.0115466016       -4.2016854712        4.6279074828
 H          4.9489577073       -3.6450818074        3.6700188834
 O          2.3269654253       -7.4114092157        0.0085489399
 H          2.2621691270       -7.3912698409       -0.9626096727
 H          3.1690025624       -6.9705517530        0.2118919172
 O         -7.0303487248        3.7544662682        3.4041492975
 H         -6.4472710084        3.1706180830        2.8665130803
 H         -7.3444048418        3.2234976900        4.1524732366
 O          8.4763833769        3.7746067854        4.4930397308
 H          8.1066721400        3.8900701703        3.5800745924
 H          9.0506134521        4.5216674442        4.6536418594
 O          9.9258055903        4.7163838516       -1.7129983340
 H          9.1273571915        4.1675865297       -1.6488976539
 H         10.6242110862        4.1506605257       -2.0515024276
 O          9.9033987240        4.1719071336        0.9684018230
 H         10.1054418352        3.2501702298        0.7358424802
 H          9.9572559937        4.6616570539        0.1287201066
 O         -2.8208427228       -0.4511718672       -1.5348268996
 H         -2.8243148271       -0.6841642803       -2.4850725157
 H         -3.6936189443       -0.6706713404       -1.1801600613
 O          3.8270455845        3.0362003657       -6.8844692349
 H          4.5823873398        3.6335533269       -6.8406350404
 H          4.1632294955        2.1478577961       -7.0515087855
 O         -3.4793582499       -1.0143528054        5.3384839313
 H         -4.2306132312       -0.5201534741        4.9927524228
 H         -2.9097562002       -0.3701629562        5.7900136569
 O         -7.7754958177        0.0362869434       -1.8371785145
 H         -8.1877014465       -0.8189726073       -1.6353687468
 H         -7.6037626563        0.0329409204       -2.8018109771
 O         -7.6659077207       -0.0700118957       -4.5044121204
 H         -6.9887677768        0.4417042268       -5.0034127693
 H         -8.5139945690        0.3118246990       -4.7439858634
 O          6.9843669944       -4.8163425969        1.7173399422
 H          7.8265901172       -4.5583457495        2.1125176024
 H          6.3483915144       -4.7531636721        2.4578133891
 O          8.4404574277       -2.7034604230       -3.8177138176
 H          8.6400996828       -3.1297613840       -2.9590203800
 H          7.7033103428       -3.2164712902       -4.1984538086
 O         -5.1717395437        3.2208695033        6.0597976660
 H         -5.2595791337        2.3932191908        5.5336111290
 H         -6.0372020128        3.3532523833        6.4500639866
 O          1.5468437853        6.7121059323        2.5351133683
 H          1.2712937449        6.1846089129        3.3045280930
 H          0.7634387783        7.0027852888        2.0416730075
 O         -8.4128701487        4.5345495789        1.2386691468
 H         -7.9096676251        5.3413081474        0.9812734482
 H         -8.0657535550        4.3160530237        2.1266265114
 O         -3.1249580321        4.0852961079        2.4881344340
 H         -2.2463452976        3.9021786136        2.8716114501
 H         -3.6480317254        4.6013550192        3.1350591719
 O          4.1225525234        7.6780199400        2.5055594779
 H          4.1551188310        8.1706380461        1.6771697491
 H          3.1850653217        7.4371361892        2.6045576341
 O          0.4335612413       -3.1376868977        3.5813272178
 H         -0.0743572647       -3.6557920696        4.2207215673
 H          0.8138788940       -2.3641053038        4.0517628166
 O          7.1030489548       -2.4864247921        0.1330692356
 H          7.8316413270       -2.0295102546        0.6136195660
 H          6.7143546299       -3.1392384495        0.7416075096
 O         -2.1964257895       -1.4447369591       -7.5887429952
 H         -3.1283012661       -1.2649319021       -7.3941150964
 H         -1.9942004445       -2.2126140821       -7.0219622506
 O         -9.8082343451        1.5175589152        3.4302061627
 H        -10.3846363120        0.7523494397        3.4809908650
 H        -10.0836927921        2.0175690669        2.6325280146
 O          2.5583598984        0.6974628754       -4.8835061990
 H          3.3361774065        0.6112091067       -5.4725691153
 H          2.0457135937       -0.1302437365       -4.9724324823
 O         -1.1276820496        5.0745416610       -5.9886639494
 H         -1.5590206181        4.1855903428       -5.9615454262
 H         -0.4311918937        5.0180103775       -6.6490667094
 O          7.1062524779       -0.1699286100        5.2654868506
 H          6.5914033648        0.6609513285        5.2921457011
 H          8.0043262552        0.1323814495        5.0410452729
 O          3.5312271858       -0.6137459758        6.7108591435
 H          3.3624920585       -0.0985848757        7.5013705953
 H          3.4561245396        0.0166733932        5.9614291330
 O          2.6774840258       -5.0921156727       -5.1949353393
 H          2.5812529104       -4.4463441409       -5.8976862066
 H          1.9187723169       -4.9666567706       -4.5886281511
 O          5.5857623290        5.0034455691       -5.5789576709
 H          4.7736082399        5.4620214188       -5.3297719823
 H          6.2341047833        5.2301754933       -4.8902086748
 O          2.9892593396       -4.6545018231       -2.0815780509
 H          3.9585913342       -4.5980486309       -1.9484848029
 H          2.7691917789       -5.5659171091       -2.3565783816
 O          4.1652789435       -2.1001097220        3.8144293364
 H          4.5325067894       -1.3555663404        3.3007864964
 H          4.6547542953       -2.1089265833        4.6662816915
 O         -0.4245480006       -7.7917558816       -0.2635929266
 H          0.4165772542       -8.2160293793       -0.0778508631
 H         -0.8565748640       -7.6167411911        0.5974529796
 O          1.8057239004       -1.0180651351        4.3400694614
 H          1.8025376992       -0.3810215541        3.6093554878
 H          2.6683054753       -1.4821874950        4.2490103606
 O          9.0516428550       -0.9269208192        0.9291888890
 H          9.5769389669       -1.0309902829        1.7488708472
 H          9.6744731554       -1.0218835433        0.1971901080
 O         -7.9876706414        2.1464422662        5.4922303671
 H         -7.7603444127        1.2953813440        5.8817204650
 H         -8.7947280851        1.9988312053        4.9807386091
 O         -2.9974208360       -3.2055043104        6.7702058195
 H         -3.3376229649       -2.4773834822        6.2067097254
 H         -3.7152535681       -3.4329504835        7.3600781888
 O        -10.1106542174        1.6418838008       -4.3031895542
 H        -10.7305383448        2.1294519271       -4.8441461415
 H         -9.2390444371        2.1390709048       -4.3477371807
 O         -0.4328174717       -2.5617866468       -3.3767892000
 H         -0.5788046229       -2.4852971283       -2.4076885097
 H         -0.0380759689       -3.4549051097       -3.5015244665
 O          4.2301637556        5.4624251808        4.4543507553
 H          4.3917400389        6.3111602617        4.0318879346
 H          4.5678180018        4.7769745479        3.8407472653
 O         -8.7858433870        4.2682326203       -1.6913569213
 H         -8.7542027180        4.6474104965       -0.8102323065
 H         -9.1656119262        3.3795358045       -1.6061560983
 O         -4.2796428194       -3.3899530510        0.4979962421
 H         -3.8329795433       -3.9415537018       -0.1606700448
 H         -5.1214914402       -3.0946125570        0.0932084438
 O         -6.3504862835        2.4984942397       -2.1325462337
 H         -5.9646522851        3.3156256974       -1.7673942664
 H         -6.8899130987        2.1621065912       -1.3941900568
 O          0.1499334125        3.4103812049        6.4505903967
 H          0.6345783422        4.0466067308        5.8905970232
 H         -0.7995337904        3.5283757027        6.2797038687
 O          4.5890752766       -5.8935632272        0.2999942137
 H          5.3109695713       -6.1014719256        0.8965512827
 H          4.5231033044       -4.9150077023        0.3252978552
 O          5.5825295760       -4.1164199559       -1.8155176014
 H          5.6369832444       -3.2954462223       -1.3103130084
 H          5.8067399842       -3.9020407641       -2.7508847495
 O         -7.4866063500       -4.6155403387        4.3096846624
 H         -7.1965253890       -5.5373764654        4.4725264264
 H         -7.2261503259       -4.4619529947        3.3864730375
 O         -0.5292149067        7.2295035057        0.7124785014
 H          0.0170859730        7.4783795987       -0.0659896585
 H         -0.4504340774        6.2446945728        0.6985341048
 O         -8.0746771336       -4.2949565900       -2.0020025301
 H         -8.2108176391       -3.6809774335       -2.7627662940
 H         -8.9443280043       -4.5932355238       -1.7383156681
 O        -11.5961633353       -0.4459746343       -1.1642185441
 H        -11.9636249855       -0.4050565545       -0.2672923190
 H        -11.0731751956        0.3754229011       -1.2639746720
 O        -10.0147228577       -1.9666043568        2.4480976985
 H        -10.7627274551       -1.4122754649        2.1941273025
 H         -9.2016158587       -1.5227243885        2.1218361804
 O         -8.7849812073       -2.2010410242        4.8835176189
 H         -9.3490480260       -2.0965892510        4.1034463330
 H         -8.4384076372       -3.1027876281        4.8278722222
 O         -3.7561066900       -5.4722261378        2.2553634467
 H         -3.8628039704       -5.2702621374        3.2090582894
 H         -3.9205258244       -4.6694097746        1.7307460947
 O         -4.5554676909       -1.1686511784       -6.2265945897
 H         -5.0409143317       -0.3335665694       -6.2626056759
 H         -5.1850107210       -1.8737038571       -6.0004132150
 O          8.4870064728        0.8966353314       -5.6983128190
 H          8.5298228046        1.6703161885       -5.0911007124
 H          8.0507194488        1.2139489019       -6.4891251573
 O         -1.4725470034       -6.5993794212       -4.7504934198
 H         -1.7557324953       -7.1165984548       -3.9795280478
 H         -2.2678950392       -6.2173152023       -5.1377654963
 O         -5.0545331531       -2.5588272359        3.1322037226
 H         -5.3982699097       -3.2441162708        2.5384678235
 H         -4.0893180257       -2.7300182949        3.2331555440
 O         11.1601392600        2.1893352091       -2.6455729793
 H         11.5744614608        1.4600653958       -3.1084825513
 H         10.3382928261        2.3920067482       -3.1421957409
 O         -2.2506237060       -7.7135270016       -2.3497900720
 H         -1.4608802037       -7.7429504841       -1.7853774026
 H         -2.9143707420       -8.1828487655       -1.8267924101
 O         -5.7150022681        1.2759281240       -5.7214027801
 H         -5.8197486305        2.2318448676       -5.8038410647
 H         -5.1986359036        1.1483273593       -4.8872960364
 O          0.9537554593        7.2465721324       -1.4947837779
 H          0.2865461398        7.2763525443       -2.1929455264
 H          1.3132261715        6.3368463820       -1.5428820625
 O          1.5739754473       -3.5712883048       -0.1392058778
 H          2.1753346847       -3.9626433561       -0.8086314431
 H          2.0264720155       -3.6445540173        0.7072087065
 O          0.1420124840        4.7224756445        0.7492216505
 H         -0.0390021356        4.3477740788        1.6304928487
 H          0.0864861641        4.0101402439        0.0970853715
 O          2.0534980930       -3.0359692094       -7.1779885226
 H          1.6149369691       -2.4027188304       -6.5382683856
 H          2.0159656259       -2.6187904330       -8.0383409623
 O         -7.8231704955        2.8355030208       -4.3459931081
 H         -7.8679287128        3.7959332018       -4.3770199239
 H         -7.2990750033        2.6482597396       -3.5331841684
 O        -11.7665747224        0.1043799432        1.5360488636
 H        -10.8346448097        0.3010409043        1.2601570965
 H        -12.1831666545        0.9569755385        1.6697573871
 O          8.5499629906        0.5219642371       -1.9885377668
 H          9.0223293679        0.0425487138       -2.6915968698
 H          9.2008948665        0.6762378824       -1.2827415952
 O         -4.4630458661        7.1452548045        2.1228184586
 H         -4.7569609750        6.5210665728        2.7986271718
 H         -3.6659469648        7.5542240481        2.5192001835
 O         10.6339357200       -3.7323948257        0.8871604352
 H         10.0288517086       -3.6400615821        1.6404236409
 H         10.0875011290       -3.8615107920        0.1000698994
 O          2.5626085147       -4.1216317301        2.4971809006
 H          2.8980853172       -4.6256309519        3.2669678803
 H          1.8058115265       -3.6234400014        2.8880200585
 O          8.9057045956       -3.2813547842        3.0066531149
 H          9.6153172877       -2.7589697389        3.3972729030
 H          8.1285613894       -2.6748495109        2.9948401723
 O         -4.0829443681       -5.6386229520       -2.7722173098
 H         -3.4380322633       -6.3475057091       -2.6244451103
 H         -4.1123261005       -5.4773218151       -3.7400763133
 O          6.2304253863        2.3784239439       -5.2337400428
 H          6.0360592134        3.3140773182       -5.4028952464
 H          6.1590169384        2.2718125691       -4.2659850293
 O         -6.9060627946       -0.7293808588        6.0859411626
 H         -7.6878431321       -1.1266515852        5.6499127275
 H         -6.3403362707       -1.5021197700        6.2508113221
 O         10.5864706886       -1.4738068477       -1.4418090746
 H         10.6712799048       -1.1659018871       -2.3513771353
 H         10.1460648107       -2.3355488074       -1.4842250878
 O          8.9023083511       -3.7018155525       -1.3671445568
 H          8.5898786850       -4.6331821931       -1.3232552197
 H          8.1944176640       -3.2055626314       -0.8842120576
 O          3.2105613989        1.3228234522        4.8117903694
 H          2.2771249856        1.4651881196        4.5698553966
 H          3.4934127443        2.1143583459        5.3026968424
 O          5.5934312696       -2.2836083209        6.0528396426
 H          6.2959542966       -1.6271961066        5.9237552456
 H          4.9225991617       -1.8314752619        6.5863134961
 O         -1.7606652050       -7.3238890387        2.0547490299
 H         -2.4219710886       -6.6071400699        2.1294941951
 H         -1.2564484154       -7.3295617699        2.8705827147
 O         -9.4178545629       -4.0595984091        0.9410003786
 H         -9.6998874326       -3.3652684534        1.5841801903
 H         -9.8284584143       -4.8769163629        1.2220843880
 O         -5.3885538032        0.0119600681       -0.4827097543
 H         -5.0088489660        0.8988278736       -0.6061953908
 H         -6.2666494983        0.0273465810       -0.8979123196
 O         -5.9899292328       -3.1561714935       -5.0507479113
 H         -6.9325611763       -3.3409504836       -5.0366704382
 H         -5.8058656037       -2.6751764351       -4.2098221192
 O          3.0629371132        5.8446410096       -4.4859199804
 H          3.5994788086        6.3294344816       -3.8146959701
 H          2.1301418982        5.8971532912       -4.1790041809
 O          6.0648487382       -3.7129311680       -4.3783349819
 H          5.8136108122       -4.6442834662       -4.6071998633
 H          5.4404311195       -3.1296878023       -4.8487348240
 O        -10.8302011265       -1.0942627946       -3.7786695508
 H        -11.3345895298       -1.0263853549       -2.9593398179
 H        -10.6426087432       -0.1859058359       -4.0469631082
 O        -10.5415617358        2.7817485346        1.1192904521
 H        -10.3547911773        2.3933407838        0.2541616718
 H         -9.9828574535        3.5712543805        1.1806028213
 O         -3.5519073014       -8.1064394187        0.0122629298
 H         -4.3978973139       -7.9821792260        0.4880059990
 H         -2.9042729295       -8.3025413641        0.6977650440
 O         12.1117259277        0.3256385247        1.3896390458
 H         12.3517770384       -0.5538660243        0.9700744257
 H         12.9366399334        0.7791970994        1.5580702022
 O         -4.7383458499        6.5417143493       -2.3820268906
 H         -4.3714171016        7.0517002940       -1.6509726722
 H         -4.3107171553        6.8238070968       -3.2015684908
 O         -9.2708047082        0.1868671886        0.8089142194
 H         -9.1253870797       -0.5410100587        0.1853065846
 H         -8.6710024497        0.9117747179        0.5493338409
 O         -5.3865563665       -1.7288923893       -2.8716672706
 H         -5.1191970118       -0.8209419273       -3.0959423407
 H         -4.5620690631       -2.2227895296       -2.6360604777
 O         -1.2352036792        5.8502494190        4.8076128087
 H         -1.8524741248        5.1645410154        5.1382009143
 H         -0.8172073615        6.2525413593        5.5683421763
 O          7.4315758526       -5.8288126816       -0.8499196507
 H          6.6981439802       -5.2963038758       -1.2246469547
 H          7.3840005814       -5.6677093631        0.1033213791
 O          0.5160326012        5.4720820376       -3.8773344549
 H          0.6247813093        4.5353186237       -3.6317193512
 H         -0.0925683655        5.4662974246       -4.6376221000
 O          0.8507475581       -5.9015288095        1.6053474884
 H          1.3141830701       -6.5293967268        1.0135047858
 H          1.5422338213       -5.2566087742        1.8726336062
 O         -6.7334643362       -4.2857019804        1.6651147646
 H         -6.2868448587       -4.7235906097        0.9221194079
 H         -7.6439333501       -4.1456935473        1.3579995999
 O          2.0945992445       -3.1533991751        6.3007735845
 H          1.1667108435       -2.8959210446        6.1945762081
 H          2.5887638387       -2.3352563581        6.4432373087
 O          2.9298072204       -5.2882476224        4.8543574589
 H          3.8956618143       -5.2886825282        4.8483684239
 H          2.6600920854       -4.5435977214        5.4316878399
 O          0.4450663690       -4.9755833597       -3.7366576254
 H         -0.2112581192       -5.4997703856       -4.2325342000
 H          0.3261035653       -5.2252953194       -2.7916882514
 O         10.0679251150       -0.5829009358       -4.0137508297
 H          9.6239220394       -1.4412874226       -4.1357143816
 H          9.7677996193       -0.0434250470       -4.7590376667
 O         -6.7253042167        6.4289983291        0.4601034159
 H         -6.2003302356        5.7122055056        0.0447851862
 H         -6.1253917434        6.8742509148        1.0677587356
 O         -7.0320760696        5.3530202777       -3.5152698337
 H         -6.3962242118        5.9162311295       -3.0574685239
 H         -7.6606152787        5.0725562740       -2.8282316523
 O          7.1770213558        1.2584620950        2.0804711041
 H          7.2297328250        2.2337869560        1.9892992084
 H          7.1604975252        0.8845242332        1.1806641651
 O         10.5128177946       -0.9913527592        3.1994743261
 H         11.2634744245       -0.5958127370        2.7303564937
 H         10.0813554528       -0.2451812247        3.6491474028
 O         -5.6140021642       -7.2090449929        1.4765880800
 H         -6.0144669680       -6.7789984674        0.7074385143
 H         -4.9332331251       -6.5693477943        1.7890394533
 O          2.1664752629        1.9795274495        7.7124363949
 H          1.4267826376        2.5782683846        7.5383992442
 H          2.9458643250        2.4562048476        7.3884624585
 O         -5.0727746063        4.0269239049       -5.0801990936
 H         -5.8812517755        4.5025929120       -4.8447742128
 H         -4.6602669507        3.8364774923       -4.2081279108
 O         -7.5457094984        2.1543558816        0.2656692502
 H         -7.8499494111        3.0509137171        0.5096395269
 H         -7.0389466225        1.8402627577        1.0335159851
 O         -8.5567745691       -2.5942431719       -3.9870930155
 H         -8.0430944267       -1.7821735838       -4.1383999810
 H         -9.4738215857       -2.2743227978       -3.9298687874
 O          5.1351461072       -7.1413315163       -2.0872100373
 H          4.9044173321       -6.6425387960       -1.2779745475
 H          6.0680092994       -7.3476501942       -1.9909761854
 O          7.4688295114        5.1010450829       -3.5325036137
 H          8.2242560503        5.6847842888       -3.6211490730
 H          7.1137404740        5.3028071607       -2.6391054835
 O          5.1324547175       -6.1200359610       -4.6613405902
 H          4.2143493068       -5.8719422204       -4.8638685092
 H          5.1296347651       -6.4989239752       -3.7663441921
 O         -9.8870977241        1.6795212836       -1.5999286447
 H        -10.1266253159        1.7418866914       -2.5413576198
 H         -9.0585979530        1.1420076056       -1.5947452592
 O          8.7368028857        2.6836707145       -3.7188250278
 H          8.2344664164        3.5233908920       -3.6834596967
 H          8.3558775717        2.0920275155       -3.0461564273
 O          0.6965594109       -0.0119573564        6.6329642220
 H          1.1779590234       -0.3085866192        5.8322282034
 H          1.2792327494        0.6168650106        7.0951076790
 O          6.5025536717        0.1143861045       -0.2902813807
 H          7.1562321528        0.2724931110       -0.9948944261
 H          6.5825348722       -0.8427678468       -0.1180470239
 O          4.4714268285       -3.2706686517        0.7885382798
 H          4.2787869112       -2.3495683806        0.5320885078
 H          3.9694568430       -3.4237369791        1.6014224156
 O         -4.6099228910        0.8984885089       -3.3887664604
 H         -5.1784682442        1.5132764702       -2.8790996388
 H         -3.6981350553        1.2332239592       -3.3826495624
 O          3.4420340141        7.5796996297       -0.2719809038
 H          2.5834567302        7.7400654327       -0.6866104366
 H          3.4219349775        6.6609688858        0.0278656468
 O         -3.0772726134        7.4446274423       -0.2195073902
 H         -2.1860344952        7.6016946038        0.1555431863
 H         -3.6915132783        7.4899668473        0.5347279483
 O         -4.9166722957        5.1919073868        4.1206357565
 H         -5.7667906994        4.8286800361        3.7874807371
 H         -4.8083094091        4.7327613988        4.9667479353
 O         -5.2115094370        2.5718140783        1.8493729817
 H         -4.3978977977        3.0374716316        2.1184363117
 H         -5.0752991002        1.6204939820        2.0192273006
 O          1.0295402438       -1.4287152196       -5.4323026927
 H          0.8147776864       -1.9078371995       -4.6148145321
 H          0.2337541237       -0.8621840539       -5.6213842859
 O          4.8373974311        3.2289587490        3.0183916973
 H          3.8755240061        3.0340978921        3.0233406909
 H          5.1238292522        3.1082102413        2.0950368871
 O         -2.0256310499        7.8179858667        3.0079407720
 H         -1.7638912781        7.1353655306        3.6448314380
 H         -1.4240451254        7.7450180005        2.2556820632
 O         -2.5012423932        2.8068894090       -5.7935216790
 H         -2.3210045807        2.3877458337       -4.9291039549
 H         -3.4250228630        3.0736411608       -5.7963956258
 O         12.5974485269       -1.9638739434        0.2867078348
 H         12.0990889659       -1.7937018511       -0.5304191103
 H         12.0866046391       -2.6809287278        0.7091797855
 O          4.1731503372       -2.1185629010       -5.4873848367
 H          3.7013112096       -2.5036841255       -6.2342782477
 H          3.5310208079       -2.1220758195       -4.7501320332
 O         -3.6962049111        2.0470801873       -0.9011032915
 H         -3.7967902783        2.8149269290       -1.4934807710
 H         -3.2194070226        1.3589329096       -1.3960197648
 O         -3.9045277370        4.0046385632       -2.7189778763
 H         -4.3034935702        4.8622202480       -2.4783260861
 H         -2.9363758906        4.1554643794       -2.7323415829
 O          7.5210522020        3.9033063986        2.0425903806
 H          8.3590640025        4.1052187836        1.5607619480
 H          6.8449483136        4.5538302976        1.7801282646
 O          6.8277631861       -0.5253400593       -4.0248324727
 H          7.2812258196       -0.0138829042       -4.7183681278
 H          7.4046987373       -1.2979469549       -3.8746932852
 O         -6.5560568220       -2.5105089482       -0.6081004661
 H         -7.1600445920       -3.1781712762       -0.9724232555
 H         -6.1691275918       -2.0698686325       -1.3921384259
 O         -2.7741456502       -1.1310831165       -4.1433011405
 H         -2.0914153017       -0.6147192481       -4.6037064915
 H         -3.4830870616       -1.2075033990       -4.8068925671
 O         -5.9709891520       -5.5480208049       -0.7078282110
 H         -5.2256990590       -5.6232364255       -1.3258827341
 H         -6.7174098369       -5.2589076180       -1.2496800313
 O          2.4100311878       -7.2041769656       -2.6953184505
 H          1.9366848450       -7.4071383465       -3.5353539464
 H          3.3045513668       -7.5532655612       -2.7835739794
 O         -5.6353451850       -3.1817529497        5.6773121269
 H         -5.3747866383       -2.7785952634        4.8241451663
 H         -6.4063744360       -3.7298583046        5.4390941605
 O          4.7726107210        0.4517035478       -6.3496856707
 H          5.4176305769        1.0291930857       -5.8864563452
 H          4.9116687190       -0.4572934697       -6.0441475326
 O          6.9066110333       -1.5213441934        2.9432689804
 H          6.8949751366       -1.1076957218        3.8281349488
 H          7.2441304319       -0.8406489613        2.3542592886
 O         -1.1854497650       -4.8946895991        5.1071735320
 H         -1.0036298603       -4.8000273384        6.0423626076
 H         -0.5943978719       -5.6162497237        4.7664681517
