15

C -0.005368000 -0.780595000 1.176144000
C -0.005368000 -0.780595000 -1.176144000
C -0.005368000 0.744889000 -1.206741000
C -0.005368000 0.744889000 1.206741000
H 1.031588000 -1.145958000 1.220349000
H 1.031588000 -1.145958000 -1.220349000
H -1.051060000 1.092828000 -1.285816000
H -1.051060000 1.092828000 1.285816000
H -0.562070000 -1.190789000 2.020703000
H -0.562070000 -1.190789000 -2.020703000
H 0.537451000 1.096124000 -2.089540000
H 0.537451000 1.096124000 2.089540000
O -0.643088000 -1.269204000 0.000000000
N 0.665993000 1.233089000 0.000000000
H 0.699778000 2.246080000 0.000000000
