  15
 
 C         -0.0053680000       -0.7805950000        1.1761440000
 C         -0.0053680000       -0.7805950000       -1.1761440000
 C         -0.0053680000        0.7448890000       -1.2067410000
 C         -0.0053680000        0.7448890000        1.2067410000
 H          1.0315880000       -1.1459580000        1.2203490000
 H          1.0315880000       -1.1459580000       -1.2203490000
 H         -1.0510600000        1.0928280000       -1.2858160000
 H         -1.0510600000        1.0928280000        1.2858160000
 H         -0.5620700000       -1.1907890000        2.0207030000
 H         -0.5620700000       -1.1907890000       -2.0207030000
 H          0.5374510000        1.0961240000       -2.0895400000
 H          0.5374510000        1.0961240000        2.0895400000
 O         -0.6430880000       -1.2692040000        0.0000000000
 N          0.6659930000        1.2330890000        0.0000000000
 H          0.6997780000        2.2460800000        0.0000000000
