  612

 H         -0.5425115084       -1.1597998252        0.9180825857
 C         -0.6112637972       -0.5412958375        0.0100761684
 H         -0.5391406422       -1.1969128837       -0.8712482282
 C          0.5103642233        0.5037863678       -0.0094892339
 H          0.3911031099        1.1518925223        0.8600951070
 H          0.3944326849        1.1152642492       -0.9056426949
 O         -1.7891803886        0.2100277852       -0.0077301700
 H         -2.5646723992       -0.3620739907        0.0026716435
 N          1.8637577629       -0.1172793560        0.0059491996
 H          1.9871174283       -0.7236999449       -0.8163141432
 H          1.9839706669       -0.6890766178        0.8531015169
 H          2.5930629141        0.6072390581       -0.0077068148
 O          1.3985352318        2.3115477352        2.1607435395
 H          1.4866525456        2.8706403097        2.9535266580
 H          1.8023782068        1.4671328087        2.4006042513
 O         -0.3220023642       -1.6312539341        3.0285041723
 H         -1.0003246635       -0.9862196296        3.3399085177
 H         -0.8389434718       -2.3443311582        2.5905201796
 O         -2.1503152537       -0.0147218658        3.9616853242
 H         -2.5283205514       -0.5465451157        4.6877169997
 H         -2.9222187219        0.0913874472        3.3660752886
 O         -4.4393984036       -2.9721201698        3.1187432361
 H         -5.1603481547       -3.3850421874        3.6404536616
 H         -4.6803995731       -2.0515956567        2.9075189541
 O         -0.5901679706       -3.6706146298       -1.6658342885
 H         -1.4773396501       -3.3213473936       -1.8051045419
 H          0.0087259081       -2.9229590955       -1.8864524938
 O         -0.1398649871        3.0390783426       -5.3642940435
 H          0.1044852449        3.9202992925       -5.7144788077
 H         -0.0708395458        3.1450359556       -4.3902089412
 O          0.2712806238       -4.1303208576        0.8361465439
 H          0.9511033885       -4.8271286223        0.7349129560
 H         -0.0951302219       -3.9713658646       -0.0576192276
 O         -2.5622458629        2.0950820934        1.7420700036
 H         -1.9178915942        2.4293186890        2.4080666976
 H         -2.2277223740        1.2698647467        1.3592219257
 O          3.1501765835        4.9515901921       -0.8717822176
 H          2.3200402997        4.4436087325       -0.8299502291
 H          2.9373216985        5.9040347767       -0.8524064295
 O         -2.0860730169       -3.1821340917        1.9140844661
 H         -2.6513279304       -2.5328083665        1.4404483374
 H         -2.5885619170       -3.4349507549        2.7050356267
 O         -3.5870458846       -1.6370234704        0.3942021706
 H         -3.6116333143       -2.3307220120       -0.3081646881
 H         -4.5177352644       -1.3634378881        0.4782235686
 O          0.5463873642        0.5713286116       -3.3418707529
 H         -0.3454101875        0.9107248611       -3.1103287598
 H          1.1902466496        1.2360706026       -3.0173984489
 O          0.2113378215        1.1348113492        4.7573086144
 H          0.8753156782        0.6818407250        4.2090706931
 H         -0.6531992046        0.7282804917        4.5817587380
 O         -4.4974167222       -0.2606017829        2.7657287230
 H         -5.2130818007        0.0437652871        3.3438255135
 H         -4.6326380820        0.2286747439        1.9290980470
 O         -1.0701465259        3.2156201744        3.5568083409
 H         -0.6023120844        2.5713715383        4.1181863366
 H         -1.6545024513        3.7457669106        4.1320593714
 O         -1.7789235987        1.4377073455       -2.4542741006
 H         -1.8621088684        1.0577424183       -1.5568560937
 H         -2.3966192461        0.9383153308       -3.0175435689
 O          1.1245128326       -1.7242413599       -2.1448696083
 H          0.8599505219       -0.9138799456       -2.6299057447
 H          1.7425225180       -2.1926859170       -2.7343430409
 O         -2.3071314267       -5.1982522187        0.2130129896
 H         -2.0564703204       -4.4581421073        0.8076950864
 H         -1.5085109001       -5.4879421808       -0.2676652415
 O          3.5158090738        2.0881762594       -0.1258660457
 H          4.2985613024        1.6864939645       -0.5487489994
 H          3.8315203872        2.8872880139        0.3169561434
 O         -2.3696055655       -1.6959951964       -2.4234963760
 H         -2.9420243347       -0.9523531308       -2.1636342250
 H         -2.9540994415       -2.3546002949       -2.8427202742
 O         -5.1588845422        1.1930754803        0.6464399721
 H         -6.1071425982        1.3083440010        0.7883275891
 H         -4.7740081770        2.0926184791        0.6695398310
 O         -3.8279337823        3.2443319810       -2.1454922742
 H         -3.0351012463        2.6768984716       -2.1450327052
 H         -3.6472028372        4.0117045003       -2.7183457605
 O          2.1088478522       -2.3930558331        1.4413627974
 H          2.7581818968       -2.6143675663        0.7473980866
 H          1.3061930372       -2.9197191332        1.2324332461
 O         -0.1029337543        3.6763083642       -2.7900023497
 H         -0.7006962827        3.2156584188       -2.1820309785
 H          0.8097179479        3.4260112767       -2.5462847020
 O         -4.1298642583        0.2498811042       -1.6653491690
 H         -4.4831044404        0.5900130836       -0.8273309497
 H         -4.7753879834       -0.3880799144       -2.0108961142
 O         -6.2262015665       -1.3919640704        0.1116544571
 H         -6.5739289592       -0.6933978108       -0.4685140960
 H         -6.4524191937       -2.2591322443       -0.2808146373
 O         -6.9563928146       -1.8038913182        2.6219710737
 H         -6.5743166412       -1.6129822845        1.7407210705
 H         -7.2045870658       -2.7542070567        2.6147248673
 O          1.9638451684       -0.1818636102        3.0883620804
 H          1.2509629838       -0.8229035518        2.9284603569
 H          2.7697166735       -0.7114762624        3.2047360321
 O          2.1318419646        7.5850238616        1.7526607179
 H          2.1560101374        7.0951325072        2.5906164807
 H          1.4475762477        7.1422428349        1.2125198406
 O         -7.3542407916       -4.4251133849        2.1961955582
 H         -6.5615983497       -4.7124640300        1.7015952527
 H         -8.1199795826       -4.5264826880        1.6203972157
 O         -5.4574588635       -1.7535301653       -2.7939336861
 H         -6.4105656642       -1.9967200884       -2.7467298669
 H         -4.9606595979       -2.5153253268       -2.4682546619
 O          2.7630112382        4.8815642519        1.8604702187
 H          3.1114696792        4.9368306418        0.9611568221
 H          3.1454439330        4.0836388303        2.2509208041
 O          2.2158681412        2.4281874085       -2.4154836601
 H          2.6107392091        2.3824152623       -1.5197172109
 H          2.9441156394        2.2830481621       -3.0441309480
 O         -7.7101113548        1.7152597521        1.6471772985
 H         -8.5269189758        2.1407364743        1.9855797387
 H         -7.2318961616        1.4224246834        2.4626986269
 O          4.2093757304        2.8900673126        2.9679807906
 H          3.8816065767        2.2897928952        3.6540752161
 H          4.8524087162        2.3985289604        2.4274558135
 O          3.5049975144       -2.8395227790       -0.8251722988
 H          3.6011426713       -2.0110065979       -1.3541059110
 H          2.8486563700       -3.3816284588       -1.3011019372
 O         -4.5411074721        3.7389661562        0.4045087018
 H         -4.2140904535        4.4434958645        0.9908078514
 H         -4.0630168010        3.7703211479       -0.4424462299
 O         -7.2201185854        0.6647757617       -1.4321859576
 H         -6.9017527865        1.5807957431       -1.2872973548
 H         -8.1068137831        0.6656431035       -1.0065892765
 O         -5.5286333255        1.7791262768       -3.5697990070
 H         -4.9452754138        2.3531934102       -3.0142830155
 H         -5.9779672328        1.2032014282       -2.9438750716
 O          3.2941695174        7.6312367476       -0.7952439725
 H          4.2476801138        7.5037933318       -0.6753670854
 H          2.9296719145        7.8468376528        0.0781803729
 O          2.1366109355       -0.5267380815       -5.1479209476
 H          1.7402854967       -1.1403922600       -5.8051233120
 H          1.4057781456       -0.1338910471       -4.6346505007
 O         -4.6265660944        2.8889353002        3.2167169996
 H         -4.6299943298        3.8184517971        2.9573189233
 H         -3.9208862732        2.4785100216        2.6760870937
 O          5.5407564821        1.0352648646       -1.4725051640
 H          6.3409959706        0.6144430655       -1.1090858210
 H          5.8024200724        1.6591883949       -2.1694819643
 O          1.8369962674        3.5874732555        4.4603636655
 H          1.0640291726        3.6042647391        5.0638540796
 H          2.4507944872        2.9601710916        4.8574706228
 O         -3.9898796062       -3.6665018995       -1.1543059716
 H         -3.3777831572       -4.3353321975       -0.7798655386
 H         -4.8549197411       -3.8833084050       -0.7812290723
 O          4.0549956478        1.4879969820       -4.1132469259
 H          4.9704675696        1.1781415041       -4.1260831588
 H          3.5127478805        0.7624598687       -4.4378821989
 O          3.6107837613       -0.6425480024       -2.2161282326
 H          3.8437140575       -0.8896393087       -3.1225091712
 H          4.3092327404       -0.0323040779       -1.9194193917
 O          0.7024166505        0.6123657676        7.3168555025
 H         -0.1216388739        0.3065028947        7.7144516027
 H          0.4462263675        0.9311862683        6.4182241774
 O         -6.6098600873        3.2948622943       -1.1990576313
 H         -5.9647578509        3.5567472935       -0.5141391998
 H         -6.4120737436        3.8679884476       -1.9659715757
 O         -8.4468089592        0.6050803744       -3.8675663908
 H         -7.9468192941        0.4650973748       -3.0415037897
 H         -7.7995229166        0.5674810527       -4.6075097840
 O         -3.5766031785       -1.7485172794        5.3997834126
 H         -3.6720754291       -2.3436426911        4.6282701448
 H         -2.9383608729       -2.1846807346        5.9935426090
 O         -0.6102653893        0.5182018363       -6.1224443498
 H         -0.3599519209        1.4206978834       -5.8537603464
 H         -1.4965793229        0.5555323719       -6.5106130716
 O         -1.5959307573        3.3275270123       -0.4367016976
 H         -2.0387882707        2.9281684422        0.3377569578
 H         -1.9677825395        4.2254830730       -0.5537142785
 O         -6.5224588489        1.1011314486        3.8954977689
 H         -5.9612084030        1.8937481488        3.8488430510
 H         -7.2746535051        1.2974876713        4.4955297975
 O        -10.1872984780       -0.4606217023        4.4243153421
 H         -9.8529273883       -0.3978079391        3.5037111790
 H        -11.1385294739       -0.3753205021        4.3730236183
 O         -9.6311689120        1.1160818766       -0.4370955103
 H        -10.2595328722        1.0730469080       -1.1877808937
 H         -9.4315915708        2.0809888249       -0.3816506770
 O         -4.9320633890        0.4630127288        6.6037312029
 H         -4.2734001624       -0.1374025498        6.2291423407
 H         -5.7815103733        0.0525692684        6.3862303216
 O         -4.5141887109        2.9909361428        5.8596069776
 H         -4.4621324296        2.8621698972        4.8851530169
 H         -4.7634906316        2.1154530269        6.2245377267
 O        -11.3112041349       -1.2451762923       -2.0865254975
 H        -11.4415248220       -0.3035076611       -2.2882008318
 H        -10.4906293397       -1.3164531271       -1.5501505088
 O          0.9534033945        3.7165294328       -0.0843754707
 H         -0.0011289688        3.5108579072       -0.1902875871
 H          1.2383641196        3.2624141519        0.7292130869
 O          2.6498021338       -2.9454150354       -3.9337388371
 H          3.4946930191       -3.4378343150       -3.9635671721
 H          2.7772607843       -2.1328720128       -4.4514208028
 O          6.4089568145        3.1513066566       -3.0400667039
 H          6.2795961401        2.9536361260       -3.9966743219
 H          5.8151033611        3.9230128611       -2.8817652859
 O          4.9556568865        5.2817825756       -2.6811127525
 H          4.2815612614        5.0231802713       -1.9971183125
 H          5.4260921529        6.0257235728       -2.2934550183
 O          5.3011353331        4.0709546096        0.6518988071
 H          5.9608139114        3.5320476406        0.1759647884
 H          5.7805913803        4.4026370575        1.4312791205
 O         -1.0121848022       -1.6827246783       -4.6638659621
 H         -0.7845489104       -0.8225768999       -5.0617873753
 H         -1.4684901648       -1.5180887414       -3.8066844954
 O         -6.6981048650       -3.8960420243       -0.7189499614
 H         -6.6073639380       -4.2154858466       -1.6461195909
 H         -7.5746791869       -4.1638359510       -0.4288533301
 O         -1.4636088297       -2.7201114656        6.7910873788
 H         -1.4818871791       -1.8531670797        7.2270433000
 H         -0.6195051816       -2.7555196666        6.3030737844
 O         -3.3597409932        0.4097659178       -4.3562597880
 H         -4.2565576703        0.7146994849       -4.1188707792
 H         -3.3704991818        0.1429127578       -5.2902714425
 O          0.7120787725       -2.7048692363        5.1624617018
 H          1.2933793431       -3.3835097137        4.7674498835
 H          0.2634439803       -2.3047901952        4.3760806940
 O         -0.2600613774       -5.3113147337        3.2615335510
 H         -0.7915090540       -6.0632748781        2.9507187343
 H         -0.1174340951       -4.7622024906        2.4731425948
 O          4.4801697984       -0.4211798644        0.7229169706
 H          4.3130899466       -0.8294637556        1.5996976447
 H          4.9421958410       -1.0938909157        0.2144342266
 O         -5.4645009677       -1.8459392293       -5.4566812824
 H         -5.3380554535       -1.7819660727       -4.4823401475
 H         -4.6121621544       -2.1153339730       -5.8301298493
 O          4.2693236392       -1.6279159852        3.0538271043
 H          4.2515874580       -2.5281696779        2.6793518120
 H          5.0003541148       -1.5916557176        3.6975987671
 O         -2.2785199600       -4.2056975622        4.5230323280
 H         -1.4484180817       -4.5856517846        4.1481282176
 H         -2.0925036228       -4.0179334353        5.4479032507
 O          1.9588245498       -4.7146008634       -1.9316848449
 H          2.2628704894       -5.2864885740       -2.6739566730
 H          0.9967224939       -4.6504170924       -1.9822942473
 O          5.8115398345        6.4983542333       -0.3396229736
 H          5.4611383699        5.5993294625       -0.1335144396
 H          5.6937701257        6.9448084998        0.5278305359
 O          0.4780969328        6.3837838754       -0.0810268508
 H          0.6304873621        5.4220136169        0.0014325797
 H          0.7226615874        6.6304732059       -0.9832107857
 O         -1.7038904282        6.7682489661        1.4868402461
 H         -1.4107158706        7.6776964903        1.5134030038
 H         -0.9310304023        6.2226844404        1.7753724341
 O         -2.5373939329        5.7801391379       -0.8782513393
 H         -2.1644689594        6.2432460462       -0.1006721405
 H         -2.0467433069        6.0808428800       -1.6616260161
 O         -6.4448120215       -1.5209026628        5.3928196580
 H         -5.4944798344       -1.6980641280        5.3682014523
 H         -6.7391413361       -1.4502218385        4.4729101575
 O          4.9919121407        5.2437288875        4.0337888735
 H          4.6709290802        4.4250397286        3.5976410852
 H          4.1864249564        5.6913572169        4.3432382957
 O          6.0312790397        1.3819328179        1.7365501107
 H          5.4099476461        0.7986256144        1.2213107507
 H          6.6476524211        1.7874464681        1.1139076788
 O         -7.3421796562        4.4953361785        2.2809742972
 H         -7.1559680483        3.6413745445        1.8690193483
 H         -7.2051744820        4.3763081912        3.2387606412
 O         -7.1602517372        3.2552057533       -5.1299723470
 H         -6.5749167406        2.6870681643       -4.5770300585
 H         -7.6102730908        2.6490992218       -5.7224323928
 O         -3.8625101895        5.4584852160        2.4009991842
 H         -3.0948837415        5.9650911401        2.0807403056
 H         -4.6540418590        6.0504996979        2.2429648262
 O         -5.2779465023        6.2978984088       -0.8764094711
 H         -4.3249901082        6.1417535725       -0.9675960026
 H         -5.6935088032        6.0452048664       -1.7057825026
 O         -1.0766696262        6.1075519112       -3.2033742369
 H         -0.7004709966        5.2106624930       -3.0423598241
 H         -0.3504110319        6.7159218379       -3.0069798394
 O          1.4021415501        6.9447874998       -2.6289085373
 H          2.1093874608        7.4701527142       -2.2319316102
 H          1.8286654414        6.2140762508       -3.1069791600
 O         -9.1767609524        3.6633361175       -0.8735567032
 H         -9.4326786577        3.6116648465       -1.8132131012
 H         -8.1923951247        3.6488475382       -0.8864564976
 O          2.4545767896       -3.9851636792        3.6340387723
 H          2.3757615904       -3.4038857214        2.8502022103
 H          2.2988798047       -4.9024758179        3.3390699660
 O          2.5239248364       -5.5028348667        0.5019844325
 H          3.1375713870       -4.8349727450        0.8655491050
 H          2.3877476248       -5.2966247671       -0.4479632661
 O         -1.9625073195       -0.1235876687        7.5438626067
 H         -2.8099806232       -0.1203294009        7.9893482872
 H         -1.9795434900        0.6742201141        6.9532619561
 O         -0.2932474540       -6.5637796588       -0.9288456012
 H         -0.0626865050       -6.4964166903       -1.8712390929
 H         -0.9867412620       -7.2565853957       -0.8731104675
 O         -9.1015989228       -0.5722342592        1.9619202175
 H         -8.7091100681        0.2899851930        1.7143717923
 H         -8.3248464899       -1.0899675021        2.3246039908
 O          2.4014894268       -0.8752357184        5.9448047165
 H          1.7863235181       -1.5640172153        5.5826076565
 H          1.8638378459       -0.4011166547        6.6133161849
 O          6.4860120383       -1.7486634360       -2.4961734524
 H          6.9170450235       -2.4960111240       -2.9445240037
 H          6.3400026417       -1.9976309292       -1.5730754236
 O         -3.6632726790       -3.6514150402       -3.7953074607
 H         -3.2135189895       -4.4935978415       -3.5793574019
 H         -3.4884745352       -3.4734055258       -4.7293792220
 O          4.8979163545        7.2178507477        2.0149709501
 H          4.9242501760        6.5414547088        2.7083498932
 H          3.9579357355        7.4435455544        1.9328193156
 O         -9.9695566255        2.5211771612        2.8042915801
 H        -10.6915265067        1.9516580765        2.5053464669
 H        -10.1097198864        3.4102140092        2.3960869528
 O         -8.7694809666        1.7739432859        5.1277806949
 H         -9.2425577476        2.1817010372        4.3776538628
 H         -9.2104190241        0.9176295673        5.2446425787
 O          7.2219022333        5.0311603074        2.3425197816
 H          7.6922798911        4.3284280796        2.8455011965
 H          6.7618954754        5.5706225461        2.9919975351
 O         -2.7723730862        2.8957827733       -5.2814942532
 H         -2.8911765813        2.0575890205       -4.7907189374
 H         -1.8058970227        2.9815934810       -5.4344116967
 O          3.5902991976        1.4297534373        5.1779715604
 H          3.1187657612        0.5818684241        5.2889501266
 H          4.5398078755        1.2321796334        5.1879547904
 O          4.4367379371       -2.2308569754        6.7769367205
 H          3.6276352586       -1.7436519425        6.4515509366
 H          4.5049615679       -2.0401387783        7.7091968806
 O         -2.9357520035       -2.5535188789       -6.2932453982
 H         -2.6534268965       -3.4523547545       -6.5282909839
 H         -2.2012716530       -2.1898320106       -5.7402046666
 O         -4.8768247287       -5.0016380887        1.2959251337
 H         -4.6126635279       -4.1224756641        1.6185950391
 H         -4.6457146339       -5.5751429522        2.0511465879
 O          0.2123164798        5.2893209147        2.5376335907
 H          1.1391607739        5.1272856430        2.2590481058
 H         -0.1767978448        4.4229847293        2.7688599211
 O         -4.1606682486       -5.9570167874        3.7189586879
 H         -3.4984432125       -5.3096690233        4.0466834639
 H         -4.9715457471       -5.7178057681        4.1821404634
 O         -3.5104768269        5.1209179448       -4.0305807180
 H         -3.2401952106        4.3823762441       -4.6169498229
 H         -2.7264236510        5.6610509675       -3.8703559538
 O          4.4794660198       -3.9396115106        1.5882575340
 H          5.1618733850       -3.5115551966        1.0372892291
 H          4.8806426130       -4.7085163346        2.0323487163
 O          6.3075595820       -2.4710614114        0.2545887152
 H          6.6404872005       -1.9290808097        0.9933267566
 H          7.0780088185       -3.0091403103        0.0026516074
 O          2.6496470192        5.0041664992       -4.1070231865
 H          2.8042672118        4.2811631302       -4.7411651441
 H          3.5347938327        5.2234853278       -3.7809058580
 O          7.3998080017        2.8794808929       -0.4617806830
 H          7.8532040686        3.7344056496       -0.3211339567
 H          7.2002108534        2.8296896150       -1.4044725250
 O         -9.4821483168        3.0339501339       -3.4952341669
 H         -9.1142094534        2.1292419837       -3.6279896412
 H         -8.9485879496        3.5943499028       -4.0678878067
 O          8.2590695307        5.4086714188       -0.1120867783
 H          8.1389644947        5.3769843340        0.8559338507
 H          7.4839788810        5.9464867726       -0.3827557605
 O          3.3841623579        3.5288780094       -6.2258773465
 H          3.0201570578        4.1026711574       -6.8991008303
 H          3.1729801039        2.6078833598       -6.5053865280
 O         -2.7637601987        4.9507372712        4.8095087615
 H         -3.4193155712        4.5741382673        5.4044962910
 H         -3.2337513246        5.2022066748        3.9881012992
 O         -6.1360369602        5.0105297495       -3.2572171169
 H         -5.2331395267        5.1384247135       -3.5916247586
 H         -6.6426200221        4.6670154166       -4.0016419618
 O          2.4768909369        6.2253428735        4.3126257850
 H          1.7996897832        6.6313234758        4.8569124218
 H          2.2223228111        5.2824088935        4.2416055815
 O         -6.7584368422        0.4540552997       -5.9015276795
 H         -6.3365443166       -0.4215475476       -5.8278133201
 H         -6.0641069470        1.0626707195       -6.2078318318
 O         -2.1068533831       -7.0328110273        2.1316241130
 H         -2.8351985028       -6.9550262083        2.7597500243
 H         -2.2838083494       -6.3550933892        1.4333692125
 O          7.2511593201       -0.9828605438        2.3550145221
 H          6.8185798681       -0.1295254174        2.1812314018
 H          8.0296321534       -0.7596183662        2.8912051056
 O         -9.1984438309       -1.6348319082       -0.4739734029
 H         -9.2335766727       -2.5671556437       -0.1815129022
 H         -9.1838909036       -1.1041084081        0.3495179010
 O         -7.9735075208       -2.3736582942       -2.6651552838
 H         -8.3282712891       -1.9560425072       -1.8595476913
 H         -8.5798802741       -2.1277532147       -3.3999543590
 O         -6.0919948572       -4.8189917071       -3.1242359035
 H         -5.2238986941       -4.4444230417       -3.3600539798
 H         -6.6870815207       -4.5307505824       -3.8421163037
 O          4.7547879967       -1.3840983700       -4.6330668680
 H          5.4648076231       -1.5653162983       -3.9988097057
 H          5.0769505994       -0.7091992881       -5.2606706693
 O         -9.3762961492       -4.1961742695        0.3525155134
 H         -9.6902836167       -4.6199373975       -0.4605319454
 H        -10.1341384341       -3.9045098412        0.9015051580
 O          4.8914218871       -4.3755652891       -4.0718864138
 H          5.0140809140       -4.6593890768       -3.1422014968
 H          5.7512835644       -4.0279776959       -4.3401922422
 O        -11.5865689694        0.8293002716        1.3809653157
 H        -12.1111742517        0.0599518763        1.1117957794
 H        -10.7950460621        0.8062869389        0.7988775390
 O         -1.9667265444        2.0628088463        6.1130859817
 H         -2.8294553949        2.5066495196        6.1466160415
 H         -1.2881246141        2.7264216811        6.3157821970
 O        -10.9910170080       -2.7180388532        1.8691803080
 H        -10.3858322040       -1.9715459419        1.9915256559
 H        -11.7208249004       -2.3658241831        1.3357278628
 O          0.3684070610       -3.9402006512       -4.8162232113
 H          1.2465615878       -3.6991600837       -4.4463250483
 H         -0.1893382441       -3.1471014350       -4.6682288185
 O          6.2853558005        1.2253393651        4.6055012415
 H          6.3902508714        2.1164619372        5.0359757694
 H          6.2667421981        1.3903471190        3.6510239093
 O          7.7869105334       -0.0229382090       -0.4411235510
 H          8.1247824562       -0.8835005392       -0.1066864362
 H          8.1338645501        0.6383021580        0.1957165100
 O          8.9346359340       -2.2711748602        0.4096471078
 H          9.0978269669       -2.2643867193        1.3708047450
 H          9.7536004698       -2.5738004771        0.0033679741
 O          2.4269087942       -6.6282438153        3.1171016046
 H          2.0098433071       -6.9638976922        3.9102907952
 H          1.8466314433       -6.9216350493        2.3724848108
 O         -0.3150897310        6.1912821594        5.0333899442
 H         -0.0784904802        5.9462704654        4.1127456210
 H         -1.2722709109        6.0620159636        5.0716555478
 O          8.7942954014        1.4851074848        1.4993949689
 H          9.4886527206        0.8611349044        1.8099696436
 H          9.2658110806        2.2139328846        1.0525116475
 O          0.0699140190       -6.3043873729       -3.5835158336
 H          0.9004582369       -6.7220825111       -3.8386955194
 H          0.1046653621       -5.4133534500       -3.9904601635
 O          7.7646862724       -5.4226434023        1.5224267250
 H          7.3503907209       -6.2249067020        1.8415073403
 H          7.4670675080       -4.7078398230        2.1391321166
 O          6.9442083960       -3.5947280290        3.1986569176
 H          6.1885525077       -3.7405680159        3.7979532284
 H          6.9827057738       -2.6483327219        2.9946384439
 O          5.2603458957       -4.6853019322       -1.4232044066
 H          4.6767210359       -3.9562997328       -1.1074142882
 H          5.0534825216       -5.4822356027       -0.8979369001
 O          6.1598954564       -1.4122949492        4.9548521551
 H          5.5911569279       -1.6710481683        5.7078671031
 H          6.2322759581       -0.4425056516        4.9442150218
 O         -2.6924553750       -6.0580792592       -3.3065225407
 H         -1.7754017945       -6.3425842124       -3.2060146762
 H         -3.1961134796       -6.3668293546       -2.5398432546
 O        -12.6951846086       -1.3891607303        0.1754044484
 H        -13.6329515503       -1.4641366003        0.0098516658
 H        -12.2509309067       -1.4018232022       -0.7104601723
 O         -6.2693791083       -4.2194598906        4.6613504065
 H         -6.6277554934       -3.5092101621        5.2135411426
 H         -6.9754060156       -4.4128080323        4.0253016067
 O         -4.5928221075       -6.4885415209       -1.1991065390
 H         -5.2526955192       -6.1446291492       -1.8134888037
 H         -4.7111345275       -6.0135672986       -0.3614079540
 O          6.5254989158        3.6174190753        5.5943393469
 H          5.9355034593        4.2739868046        5.1752310698
 H          7.3905666183        3.7340919538        5.1835213111
 O          0.0166677657        3.8998493523        6.3609658593
 H          0.7715460022        3.8038565300        6.9622340521
 H         -0.0763087970        4.8383996900        6.0906983530
 O         10.2637660374        3.3706901036        0.2905296498
 H         10.3570705717        2.9574223509       -0.5976169209
 H          9.9345115510        4.2637173454        0.1562622317
 O          6.7545134081        0.5076023834       -4.0337975280
 H          6.8928284700       -0.1415101521       -3.3255514122
 H          7.5520089914        1.0467285502       -4.1194300673
 O         -6.9501239413        3.9234088067        4.9049317812
 H         -6.1533291179        3.7728141893        5.4366113305
 H         -7.6477712479        3.3775506066        5.2824150705
 O          2.8228349961       -6.2478309308       -3.8979836884
 H          3.4849921411       -6.7991350637       -3.4194954091
 H          3.3654554665       -5.6580652915       -4.4314088430
 O          7.8091452097       -4.4796335576       -0.9937799950
 H          7.9213177949       -4.9195739568       -0.1342315130
 H          6.8447509619       -4.5535854467       -1.2050129261
 O          9.8739899198       -2.4127064328        2.9227323624
 H         10.2155954574       -3.2932963801        2.6608525393
 H          9.4435038460       -2.5055981005        3.7916134439
 O          7.5039997650       -3.4422585325       -4.3718099954
 H          7.5309830207       -2.7325258762       -5.0641038719
 H          8.3942976811       -3.4560182142       -3.9928162966
 O          1.4925674883       -2.4570931044       -6.8753481039
 H          2.4157696797       -2.7704507153       -6.9419777683
 H          0.9994474378       -3.1407651544       -6.3972423383
 O          0.9335672238       -0.1221785905       -8.2439363230
 H          0.2982334629        0.1467546266       -7.5538722127
 H          1.1196138668       -1.0504938252       -8.0482881818
 O          4.0881054971       -3.1321404101       -6.6185522653
 H          4.4199830210       -3.9924592955       -6.3611663083
 H          4.3837178552       -2.5111168369       -5.9254187246
 O          8.3800426405        3.0583391201        3.6226966763
 H          8.3606387020        2.4047193941        2.8932430446
 H          9.2977009295        2.9950883678        3.9545665910
 O          8.9347193081        0.1262658266        4.2297613872
 H          9.0880938603       -0.5800273936        4.8634536398
 H          8.1890223952        0.6534620669        4.5543096372
 O         -4.9368533201        2.3114389540       -6.7812918975
 H         -5.5407490028        3.0410284701       -6.6162807021
 H         -4.1087991849        2.5563338781       -6.3242917128
 O         10.8215180176       -0.1487532393        1.9202660291
 H         10.8694008056       -0.4050758659        0.9746746005
 H         10.5772136976       -0.9543501581        2.4152441642
 O         10.8276076348        2.2304795864        4.1913039190
 H         11.5188142532        2.2833841922        3.5181411859
 H         10.4699402950        1.3302633629        4.1670566760
 O         -7.4949482059       -3.6853066018       -5.1522072005
 H         -6.8138993230       -3.0372610922       -5.4080573860
 H         -8.3358765723       -3.2225328461       -5.1937311669
 O          2.3158049727        2.8246426925        7.3835749498
 H          3.0107818496        2.5034584147        6.7981666066
 H          1.7746039438        2.0451566466        7.5875547210
 O         -3.1762800769        0.0835769632       -7.0253939353
 H         -3.9029532185        0.5591454542       -7.4373584489
 H         -3.2516990316       -0.8629642939       -7.2093384955
 O         -1.9936504976       -5.0545462936       -5.9502277402
 H         -1.0754296539       -4.8828998610       -5.7123422524
 H         -2.3417011888       -5.6464568478       -5.2742161452
 O          4.8290019980       -7.3424971070       -2.6111457739
 H          5.6855646210       -6.9621566582       -2.8717020652
 H          4.8432736639       -7.4270493052       -1.6509117349
 O         10.4074990510        2.3069728798       -2.1437045656
 H          9.9047289738        3.0440589571       -2.5414710349
 H          9.9861460371        1.4942948648       -2.4485813241
 O          9.1679141017       -0.3143782067       -2.6216025644
 H          9.2091821581       -1.2916697566       -2.6872490986
 H          8.5390200075       -0.1460511657       -1.8744976208
 O          4.8400434431       -4.1958385317        4.7840085406
 H          4.7721004108       -3.7087513803        5.6124815003
 H          3.9580671321       -4.0891157069        4.3557076368
 O          9.4642586473       -3.0036510536       -2.5236247815
 H         10.3538319504       -3.1518066730       -2.1800581096
 H          8.8751917864       -3.4802494678       -1.9052889692
 O          2.9475573977        1.0654609371       -7.0867723010
 H          2.2890245958        0.7651811780       -7.7564342928
 H          2.6677751819        0.5642685851       -6.2870023529
 O          5.4270752102        0.3543507687       -6.5844669890
 H          4.5421573290        0.5892407399       -6.9484318610
 H          5.8856977185       -0.1966086472       -7.2202083679
 O         11.0386267176       -0.4665142995       -0.7124010491
 H         11.7849753803        0.1567275988       -0.8443162081
 H         10.4246543110       -0.3422000156       -1.4584917823
 O         11.4695383506       -3.0830681713       -0.5895117678
 H         11.4950839591       -2.0977485470       -0.6319159505
 H         12.3371661050       -3.3032514206       -0.2448010723
 O          0.4283185880        5.6116899488       -5.6458532325
 H          1.2664595235        5.5921624196       -5.1582305949
 H         -0.2215890251        5.9833966304       -5.0359800483
 O         -5.9591585245        6.7725057791        1.7032795573
 H         -6.6021452009        6.0657272963        1.8827277326
 H         -5.8124420026        6.7547773182        0.7411162400
 O          4.7640289732       -6.8485497344        0.1392502408
 H          5.1637923237       -6.9103645632        1.0114473425
 H          3.8202622120       -6.6365929545        0.3082970405
 O          6.0361489401        2.8714957219       -5.6830511166
 H          5.9182500077        1.9478530505       -5.9723428367
 H          5.1625198171        3.2741415305       -5.8251925204
 O         10.4384519484       -4.6893946157        1.6833681201
 H          9.5483228739       -5.0659204918        1.5838685869
 H         10.7229354380       -4.3936023746        0.8108331090
 O          5.1176595150       -6.2384896832        2.8880294294
 H          5.2923082262       -5.7980412598        3.7296324648
 H          4.1777843740       -6.5021213043        2.9426212061
 O          7.6212191619       -1.3246146717       -5.9157945568
 H          8.5533586120       -1.0336778993       -5.9257287758
 H          7.1748012548       -0.6360177174       -5.3904127287
 O          8.5705237573       -2.5021558510        5.3030298327
 H          7.6636082684       -2.1527833124        5.1484425398
 H          8.4634202849       -3.4481030444        5.4052835494
 O          8.6526800516        2.3922269550       -4.9367514843
 H          9.0408889764        3.1890452708       -4.5654232093
 H          7.8851514192        2.6796859194       -5.4515120627
 O         12.9211915081        1.3831159378       -0.8190872344
 H         12.8628778032        1.7653882368        0.0823786990
 H         12.4881099607        2.0016145498       -1.4152891524
 O          8.8068726204        4.3554870334       -2.8722632450
 H          8.7779462061        4.9927669798       -2.1530197297
 H          7.9006645043        3.9849848011       -2.9660971855
 O          7.2471698262       -6.1079285704       -3.2070242722
 H          7.6818741175       -5.7457698466       -2.4236277036
 H          7.3176897183       -5.4298528643       -3.8857714868
 O          9.9028787596       -0.0517041204       -5.3177671267
 H          9.8580704304       -0.2058919417       -4.3661168781
 H          9.6362417761        0.8706019718       -5.4324870559
 O         12.2419873966        2.1281368970        1.7006098942
 H         11.7958080733        1.2709389288        1.8297008082
 H         11.5726079773        2.7283870090        1.3326943640
 O         -9.1804008213       -4.7864357465       -2.2494040340
 H         -8.9268355187       -5.4258634945       -2.9125364736
 H         -8.7158865799       -3.9589132241       -2.4862411645
 O         13.3214853924       -1.2723355673        0.6019972074
 H         13.0780584624       -0.9074982597        1.4557668748
 H         13.6166018803       -0.5326332697        0.0635919430
 O         -2.4267862100       -8.0989184013       -0.5181875151
 H         -2.4178734626       -8.0893941331        0.4468006727
 H         -3.2468363249       -7.6552532533       -0.7799541503
 O          0.6561068701       -7.5856832532        1.4023850570
 H          0.5608634571       -7.2022580245        0.5143083929
 H         -0.2405146202       -7.6785813163        1.7408932436
 O         -8.9822144805       -3.0543405369        4.1307842843
 H         -9.7341493713       -3.3526466025        3.6153704814
 H         -9.2514773025       -2.2294966686        4.5526686913
 O        -11.4776238854        1.4759368823       -2.3235578254
 H        -11.9417494958        2.0438480175       -1.6709444094
 H        -11.0507034947        2.0797900446       -2.9445340099
 O        -12.2827108233        2.9209868734       -0.2198145490
 H        -11.8088986508        3.7002289013        0.0796188654
 H        -12.1838743813        2.2470726099        0.4799575195
 O         -9.9573214184        4.7670842506        1.4550889779
 H         -9.0967084170        5.0114779053        1.8337247366
 H         -9.7451478200        4.4975693167        0.5436915688
 O         -9.7923734621       -1.6801071077       -4.4196590433
 H        -10.5523614574       -1.7049106613       -3.8179604904
 H         -9.4849279813       -0.7542372462       -4.4250873495
