  91
 
 C          1.4318973924       -0.1621014183       -0.1992701367
 C         -0.5047389802       -0.7756820338        1.1188443826
 C         -1.6931935348        0.0532316966        0.6553719717
 C          1.0003046267        1.2214719853       -0.4397959718
 H          1.9165073545       -0.5899054090       -1.0828707980
 H         -0.8529114640       -1.7310862199        1.5072921631
 H         -2.2069336262       -0.4559766737       -0.1533848431
 H          0.3094238559        1.4559464750       -1.2240532223
 H          2.1233847627       -0.1922786942        0.6474991533
 H          0.0481500830       -0.2622044280        1.9076580169
 H         -2.3840926392        0.1852490771        1.4764939188
 H         -1.3639610256        1.0248728003        0.3076295293
 O          0.3763382958       -1.1078297602        0.0567494539
 N          1.2691782878        2.2235201875        0.4991947741
 H          1.2797465483        3.1486210853        0.0879069167
 H          2.1196594042        2.0440634317        1.0226333687
 O          1.5300994296       -3.5361126046       -1.7558613211
 H          0.5602359014       -3.4586773079       -1.7153218187
 H          1.8413143250       -3.3914187690       -0.8405216031
 O         -3.9290800035        2.5346064394        1.5612151225
 H         -3.4713661195        2.1220463268        2.3139041485
 H         -3.2497857154        2.9769034404        1.0401272927
 O         -1.0981717213       -2.7568215179       -1.4490648611
 H         -0.5824536968       -2.1554560438       -0.8728484619
 H         -1.5019709921       -2.1607881416       -2.0969240254
 O         -1.8993677496       -0.5452971265       -2.9445033624
 H         -2.4119453586       -0.5861849895       -3.7528935414
 H         -2.2503248093        0.2285105065       -2.4443891899
 O         -2.8285419335        1.7436985330       -1.9244696262
 H         -2.5127356090        2.2169854581       -1.1425036055
 H         -2.4028471300        2.2067349273       -2.6796149519
 O          2.3767559875       -1.6982988264       -3.3575636702
 H          2.0383887720       -2.4002842845       -2.7152858621
 H          2.4861463671       -2.1499209909       -4.1954278257
 O         -1.3586131930       -3.3392564191        3.0456418138
 H         -1.7747073993       -3.5443722819        2.1676252858
 H         -1.4957302458       -4.1128043854        3.5935404363
 O          3.9564173490        0.9411805483        1.7077672366
 H          3.3072416618        0.6719069431        2.4265978593
 H          4.7203017515        1.2825920089        2.1747450190
 O          0.0901458048        1.9596287809        3.0996736563
 H          0.2181916274        1.9819865855        2.1387061619
 H         -0.8293128299        1.6910151359        3.2682292365
 O         -1.5579319830        3.4058609056        0.0780672344
 H         -1.0660620925        3.4713418270        0.9006035903
 H         -0.9694719265        3.7584565113       -0.6100931788
 O         -4.5143081949       -1.6491009926        1.0831551859
 H         -4.5864882284       -0.7965852218        0.5804482959
 H         -5.4128457483       -1.9620495557        1.1917436006
 O          4.5693969575       -1.4984370208        0.5117869716
 H          4.6395316841       -1.2759946669       -0.4294394585
 H          4.3857227133       -0.6611126046        0.9738337691
 O         -2.5897211971       -3.6468441054        0.7199292727
 H         -3.2825508643       -2.9672737833        0.7668116183
 H         -2.0781716492       -3.4526813545       -0.0861609274
 O          2.5679849859       -3.2136737370        0.7799055973
 H          3.3078906656       -2.5603420790        0.6936116016
 H          2.9761843021       -4.0354659735        1.0562774997
 O          0.3377372095        4.2358706432       -1.8127381927
 H          1.0859925098        3.6687990863       -2.1674031562
 H          0.5320765943        5.1327292212       -2.0856088279
 O         -3.1859253554       -1.2780364398        3.4911487319
 H         -3.6937991370       -1.4055403308        2.6686946947
 H         -2.4646009861       -1.9295516918        3.4525480217
 O          4.0424756888        1.7346696230       -1.0667485713
 H          4.3007694246        0.9039964464       -1.4952652919
 H          3.9905174998        1.5342695034       -0.1230650407
 O          1.3575953827       -2.2836885955        3.1412146960
 H          0.4455145036       -2.5988957267        3.1921065915
 H          1.6946503903       -2.5792658672        2.2785823755
 O          2.1712837906        2.6997695609       -2.8238821808
 H          2.8544530252        2.4087399109       -2.1900892683
 H          1.7065486134        1.8959787310       -3.1106612200
 O          2.2495629987        0.2820419817        3.5457194915
 H          1.4688000745        0.8663816724        3.5426465068
 H          1.9251202199       -0.6385676969        3.4867016073
 O         -1.1522741037        2.8043363153       -3.7188680845
 H         -0.5160996143        2.1112096042       -3.9350927270
 H         -0.6845584961        3.4111582458       -3.1218516558
 O         -2.5500155494        1.2781953161        3.6426841460
 H         -2.7899759569        1.5814031536        4.5191258998
 H         -2.7634629872        0.3078829190        3.6220407158
 O         -4.8335596296        0.6542016584       -0.1723460160
 H         -4.3023710505        0.9179782555       -0.9336958987
 H         -4.6592207076        1.3433139382        0.5022903751
 O          0.6148746426        0.4673986777       -3.5828999981
 H         -0.2200198684        0.0611394287       -3.2874525754
 H          1.2682618712       -0.2482584490       -3.5371511458
 O          4.5911138169       -0.7551570482       -2.1797130304
 H          5.3159664326       -0.8968827008       -2.7890529893
 H          3.7735591854       -1.0815983654       -2.6202494801
