 xtb: 6.5.1 (579679a)
          10122203163D

 91 65  0     0  0            999 V2000
    1.4319   -0.1621   -0.1993 C   0  0  0  0  0  0  0  0  0  0  0  0
   -0.5047   -0.7757    1.1188 C   0  0  0  0  0  0  0  0  0  0  0  0
   -1.6932    0.0532    0.6554 C   0  0  0  0  0  0  0  0  0  0  0  0
    1.0003    1.2215   -0.4398 C   0  0  0  0  0  0  0  0  0  0  0  0
    1.9165   -0.5899   -1.0829 H   0  0  0  0  0  0  0  0  0  0  0  0
   -0.8529   -1.7311    1.5073 H   0  0  0  0  0  0  0  0  0  0  0  0
   -2.2069   -0.4560   -0.1534 H   0  0  0  0  0  0  0  0  0  0  0  0
    0.3094    1.4559   -1.2241 H   0  0  0  0  0  0  0  0  0  0  0  0
    2.1234   -0.1923    0.6475 H   0  0  0  0  0  0  0  0  0  0  0  0
    0.0482   -0.2622    1.9077 H   0  0  0  0  0  0  0  0  0  0  0  0
   -2.3841    0.1853    1.4765 H   0  0  0  0  0  0  0  0  0  0  0  0
   -1.3640    1.0249    0.3076 H   0  0  0  0  0  0  0  0  0  0  0  0
    0.3763   -1.1078    0.0568 O   0  0  0  0  0  0  0  0  0  0  0  0
    1.2692    2.2235    0.4992 N   0  0  0  0  0  0  0  0  0  0  0  0
    1.2798    3.1486    0.0879 H   0  0  0  0  0  0  0  0  0  0  0  0
    2.1197    2.0441    1.0226 H   0  0  0  0  0  0  0  0  0  0  0  0
    1.5301   -3.5361   -1.7559 O   0  0  0  0  0  0  0  0  0  0  0  0
    0.5602   -3.4587   -1.7153 H   0  0  0  0  0  0  0  0  0  0  0  0
    1.8413   -3.3914   -0.8405 H   0  0  0  0  0  0  0  0  0  0  0  0
   -3.9291    2.5346    1.5612 O   0  0  0  0  0  0  0  0  0  0  0  0
   -3.4713    2.1221    2.3139 H   0  0  0  0  0  0  0  0  0  0  0  0
   -3.2498    2.9769    1.0401 H   0  0  0  0  0  0  0  0  0  0  0  0
   -1.0982   -2.7568   -1.4491 O   0  0  0  0  0  0  0  0  0  0  0  0
   -0.5825   -2.1555   -0.8728 H   0  0  0  0  0  0  0  0  0  0  0  0
   -1.5020   -2.1608   -2.0969 H   0  0  0  0  0  0  0  0  0  0  0  0
   -1.8994   -0.5453   -2.9445 O   0  0  0  0  0  0  0  0  0  0  0  0
   -2.4120   -0.5862   -3.7529 H   0  0  0  0  0  0  0  0  0  0  0  0
   -2.2503    0.2285   -2.4444 H   0  0  0  0  0  0  0  0  0  0  0  0
   -2.8285    1.7437   -1.9245 O   0  0  0  0  0  0  0  0  0  0  0  0
   -2.5127    2.2170   -1.1425 H   0  0  0  0  0  0  0  0  0  0  0  0
   -2.4028    2.2067   -2.6796 H   0  0  0  0  0  0  0  0  0  0  0  0
    2.3767   -1.6983   -3.3576 O   0  0  0  0  0  0  0  0  0  0  0  0
    2.0384   -2.4003   -2.7153 H   0  0  0  0  0  0  0  0  0  0  0  0
    2.4861   -2.1499   -4.1954 H   0  0  0  0  0  0  0  0  0  0  0  0
   -1.3586   -3.3392    3.0457 O   0  0  0  0  0  0  0  0  0  0  0  0
   -1.7747   -3.5444    2.1676 H   0  0  0  0  0  0  0  0  0  0  0  0
   -1.4957   -4.1128    3.5936 H   0  0  0  0  0  0  0  0  0  0  0  0
    3.9564    0.9412    1.7078 O   0  0  0  0  0  0  0  0  0  0  0  0
    3.3073    0.6719    2.4266 H   0  0  0  0  0  0  0  0  0  0  0  0
    4.7203    1.2826    2.1747 H   0  0  0  0  0  0  0  0  0  0  0  0
    0.0902    1.9596    3.0997 O   0  0  0  0  0  0  0  0  0  0  0  0
    0.2182    1.9820    2.1387 H   0  0  0  0  0  0  0  0  0  0  0  0
   -0.8293    1.6910    3.2682 H   0  0  0  0  0  0  0  0  0  0  0  0
   -1.5579    3.4059    0.0781 O   0  0  0  0  0  0  0  0  0  0  0  0
   -1.0660    3.4713    0.9006 H   0  0  0  0  0  0  0  0  0  0  0  0
   -0.9695    3.7585   -0.6101 H   0  0  0  0  0  0  0  0  0  0  0  0
   -4.5143   -1.6491    1.0832 O   0  0  0  0  0  0  0  0  0  0  0  0
   -4.5865   -0.7966    0.5805 H   0  0  0  0  0  0  0  0  0  0  0  0
   -5.4129   -1.9620    1.1918 H   0  0  0  0  0  0  0  0  0  0  0  0
    4.5694   -1.4985    0.5118 O   0  0  0  0  0  0  0  0  0  0  0  0
    4.6395   -1.2760   -0.4295 H   0  0  0  0  0  0  0  0  0  0  0  0
    4.3857   -0.6611    0.9738 H   0  0  0  0  0  0  0  0  0  0  0  0
   -2.5897   -3.6468    0.7199 O   0  0  0  0  0  0  0  0  0  0  0  0
   -3.2826   -2.9673    0.7668 H   0  0  0  0  0  0  0  0  0  0  0  0
   -2.0782   -3.4527   -0.0861 H   0  0  0  0  0  0  0  0  0  0  0  0
    2.5680   -3.2137    0.7799 O   0  0  0  0  0  0  0  0  0  0  0  0
    3.3079   -2.5604    0.6936 H   0  0  0  0  0  0  0  0  0  0  0  0
    2.9762   -4.0355    1.0563 H   0  0  0  0  0  0  0  0  0  0  0  0
    0.3378    4.2359   -1.8127 O   0  0  0  0  0  0  0  0  0  0  0  0
    1.0860    3.6688   -2.1674 H   0  0  0  0  0  0  0  0  0  0  0  0
    0.5321    5.1327   -2.0856 H   0  0  0  0  0  0  0  0  0  0  0  0
   -3.1859   -1.2780    3.4912 O   0  0  0  0  0  0  0  0  0  0  0  0
   -3.6938   -1.4055    2.6687 H   0  0  0  0  0  0  0  0  0  0  0  0
   -2.4646   -1.9295    3.4526 H   0  0  0  0  0  0  0  0  0  0  0  0
    4.0425    1.7346   -1.0668 O   0  0  0  0  0  0  0  0  0  0  0  0
    4.3008    0.9040   -1.4953 H   0  0  0  0  0  0  0  0  0  0  0  0
    3.9905    1.5342   -0.1231 H   0  0  0  0  0  0  0  0  0  0  0  0
    1.3576   -2.2837    3.1412 O   0  0  0  0  0  0  0  0  0  0  0  0
    0.4455   -2.5989    3.1921 H   0  0  0  0  0  0  0  0  0  0  0  0
    1.6946   -2.5793    2.2786 H   0  0  0  0  0  0  0  0  0  0  0  0
    2.1713    2.6998   -2.8239 O   0  0  0  0  0  0  0  0  0  0  0  0
    2.8545    2.4087   -2.1901 H   0  0  0  0  0  0  0  0  0  0  0  0
    1.7065    1.8960   -3.1107 H   0  0  0  0  0  0  0  0  0  0  0  0
    2.2496    0.2820    3.5457 O   0  0  0  0  0  0  0  0  0  0  0  0
    1.4688    0.8664    3.5426 H   0  0  0  0  0  0  0  0  0  0  0  0
    1.9251   -0.6386    3.4867 H   0  0  0  0  0  0  0  0  0  0  0  0
   -1.1523    2.8043   -3.7189 O   0  0  0  0  0  0  0  0  0  0  0  0
   -0.5161    2.1112   -3.9351 H   0  0  0  0  0  0  0  0  0  0  0  0
   -0.6846    3.4112   -3.1219 H   0  0  0  0  0  0  0  0  0  0  0  0
   -2.5500    1.2782    3.6427 O   0  0  0  0  0  0  0  0  0  0  0  0
   -2.7900    1.5814    4.5191 H   0  0  0  0  0  0  0  0  0  0  0  0
   -2.7634    0.3079    3.6220 H   0  0  0  0  0  0  0  0  0  0  0  0
   -4.8336    0.6542   -0.1723 O   0  0  0  0  0  0  0  0  0  0  0  0
   -4.3024    0.9180   -0.9337 H   0  0  0  0  0  0  0  0  0  0  0  0
   -4.6592    1.3433    0.5023 H   0  0  0  0  0  0  0  0  0  0  0  0
    0.6149    0.4674   -3.5829 O   0  0  0  0  0  0  0  0  0  0  0  0
   -0.2200    0.0611   -3.2875 H   0  0  0  0  0  0  0  0  0  0  0  0
    1.2682   -0.2483   -3.5372 H   0  0  0  0  0  0  0  0  0  0  0  0
    4.5911   -0.7552   -2.1797 O   0  0  0  0  0  0  0  0  0  0  0  0
    5.3160   -0.8969   -2.7891 H   0  0  0  0  0  0  0  0  0  0  0  0
    3.7735   -1.0816   -2.6203 H   0  0  0  0  0  0  0  0  0  0  0  0
  2  3  1  0  0  0  0
  1  4  1  0  0  0  0
  1  5  1  0  0  0  0
  2  6  1  0  0  0  0
  3  7  1  0  0  0  0
  4  8  1  0  0  0  0
  1  9  1  0  0  0  0
  2 10  1  0  0  0  0
  3 11  1  0  0  0  0
  3 12  1  0  0  0  0
  1 13  1  0  0  0  0
  2 13  1  0  0  0  0
  4 14  1  0  0  0  0
 14 15  1  0  0  0  0
 14 16  1  0  0  0  0
 17 18  1  0  0  0  0
 17 19  1  0  0  0  0
 20 21  1  0  0  0  0
 20 22  1  0  0  0  0
 23 24  1  0  0  0  0
 23 25  1  0  0  0  0
 26 27  1  0  0  0  0
 26 28  1  0  0  0  0
 29 30  1  0  0  0  0
 29 31  1  0  0  0  0
 32 33  1  0  0  0  0
 32 34  1  0  0  0  0
 35 36  1  0  0  0  0
 35 37  1  0  0  0  0
 38 39  1  0  0  0  0
 38 40  1  0  0  0  0
 41 42  1  0  0  0  0
 41 43  1  0  0  0  0
 44 45  1  0  0  0  0
 44 46  1  0  0  0  0
 47 48  1  0  0  0  0
 47 49  1  0  0  0  0
 50 51  1  0  0  0  0
 50 52  1  0  0  0  0
 53 54  1  0  0  0  0
 53 55  1  0  0  0  0
 56 57  1  0  0  0  0
 56 58  1  0  0  0  0
 59 60  1  0  0  0  0
 59 61  1  0  0  0  0
 62 63  1  0  0  0  0
 62 64  1  0  0  0  0
 65 66  1  0  0  0  0
 65 67  1  0  0  0  0
 68 69  1  0  0  0  0
 68 70  1  0  0  0  0
 71 72  1  0  0  0  0
 71 73  1  0  0  0  0
 74 75  1  0  0  0  0
 74 76  1  0  0  0  0
 77 78  1  0  0  0  0
 77 79  1  0  0  0  0
 80 81  1  0  0  0  0
 80 82  1  0  0  0  0
 83 84  1  0  0  0  0
 83 85  1  0  0  0  0
 86 87  1  0  0  0  0
 86 88  1  0  0  0  0
 89 90  1  0  0  0  0
 89 91  1  0  0  0  0
M  END
