  91

 H         -0.0000000000       -0.0000000000       -0.0000000000
 O         -0.3928024096       -0.2201752016        0.9264837327
 H          0.3285273595       -0.7258980587        1.4179020504
 H         -0.6064518507        0.6716662546        1.4518027097
 O         -1.0370677649        1.8594335652        2.1629807129
 H         -0.5059366315        2.6411772628        1.9012450153
 H         -1.9412756753        2.0092821004        1.8264816535
 O          1.5276606899       -1.5302089144        2.0981627992
 H          1.6945757563       -0.9242061647        2.8388606011
 H          2.3239098531       -1.4939957778        1.5323008198
 O         -2.5425814634        0.2556356778       -1.1808572674
 H         -3.4752198650        0.0279656141       -1.2351937354
 H         -2.1182480757       -0.5180357975       -0.7692160339
 O         -0.5933368918        2.1576822352       -0.5701766663
 H         -0.8537777480        3.0956343759       -0.5863764420
 H         -1.3828280431        1.6454535821       -0.7910374231
 O          0.6793139375       -0.0924804136       -1.3529116526
 H          1.1120109392       -0.9660312719       -1.3730761810
 H          0.1689025142        0.0202306960       -2.1744853788
 O         -1.7449669473       -2.2371923040       -0.3552238872
 H         -1.1652443572       -3.0413114221       -0.3901485504
 H         -1.8231880759       -2.0591514436        0.6109596711
 O          1.9848833906       -2.4781374544       -1.2222560729
 H          2.7211471735       -2.2380612365       -0.6342920043
 H          2.3057309262       -2.4370816051       -2.1321673067
 O          1.5750955298        0.7863798873        3.4335861328
 H          1.5826941023        1.6367258442        3.9058711988
 H          1.6673873412        1.0612099054        2.4965913177
 O          1.7723164386        1.3978626267        0.8498569018
 H          2.5798486848        1.3855981841        0.3185051136
 H          1.1033653834        1.8513461859        0.3236270888
 O         -2.0249440123       -2.0249245125        2.2917368108
 H         -1.5690596364       -2.8590240521        2.4687079556
 H         -1.5955778382       -1.3720816056        2.8900296581
 O         -0.8436912003       -0.2943205457        3.9343702090
 H          0.0409627877        0.1105501313        3.8030539921
 H         -1.4211880987        0.4337637962        4.1670328943
 O          4.0072598381        0.8906129286       -0.6801837312
 H          3.6239893479        0.8102672478       -1.6026625123
 H          4.7972268567        1.4241329352       -0.7646796826
 O          3.7620958218       -1.4406442086        0.5455316163
 H          4.6147156907       -1.6849422931        0.9066077261
 H          3.8673441149       -0.5509610817        0.1287206253
 O          1.1369899706        2.6778135560       -2.5331229056
 H          0.4854076693        3.0630763780       -3.1351804551
 H          0.5863872956        2.2180790742       -1.8618079962
 O         -1.0906556556        0.2929470857       -3.4250813014
 H         -1.7472582903        0.3197999690       -2.6973284558
 H         -1.2104823293       -0.5525930565       -3.8643440909
 O         -0.8065805511       -2.4780595185       -3.0420828089
 H         -1.0912607720       -2.2548936052       -2.1425902460
 H         -0.7608088811       -3.4363192103       -3.0628629018
 O          2.9945590604        0.7610353545       -3.0640934502
 H          2.5248132252       -0.0508108849       -3.3047684221
 H          2.3210078763        1.4648832149       -3.0070670171
 O          0.2565255493        4.1254253648        1.4265851508
 H          1.0277535869        4.0340348508        0.8294791943
 H         -0.3748991985        4.6709962888        0.9448864173
 O         -4.1898744598       -0.4855575973        1.4840945101
 H         -4.4184326871       -0.9574928203        0.6647683799
 H         -3.5239345343       -1.0344393100        1.9263097157
 O          1.6913688284       -1.6404333423       -3.8038514967
 H          1.8243133248       -1.7503211355       -4.7452270247
 H          0.7675420918       -1.8950045684       -3.6096105953
 O          0.1009447537       -3.8423433374        2.3195128200
 H          0.6633744032       -3.0435577017        2.3080459645
 H          0.3876973520       -4.3765937269        3.0600922951
 O         -1.3725533130        4.7645059626       -0.8238373407
 H         -1.0397454668        4.9827022163       -1.6982382485
 H         -2.2852186810        4.4637338297       -0.9573870725
 O         -3.5565507008        2.0172668205        1.1800299077
 H         -4.1633277269        2.4797792676        1.7594624999
 H         -3.7862148287        1.0478270019        1.2646836669
 O         -3.4552775736        3.0584137163       -1.3203001012
 H         -3.4714919588        2.6221718636       -0.4418295126
 H         -4.3501645877        3.0297263511       -1.6567978468
 O         -0.0152415113       -4.1858164347       -0.4333959391
 H          0.7822916767       -3.7001938438       -0.7064675576
 H          0.0686776988       -4.3247017357        0.5230558355
 O          2.2285791535        3.9856799788       -0.4342690034
 H          1.9245207072        3.5631014920       -1.2636800552
 H          2.6958645246        4.7813437528       -0.6832411438
 O         -4.3343059236       -1.8583513510       -0.8881131596
 H         -3.4270570107       -2.2112467152       -0.7619325139
 H         -4.9158541690       -2.6119270398       -0.9707949366
 O          1.6484881920        3.4572739711        3.7477379863
 H          2.5213501936        3.6392076880        3.3961050650
 H          1.0248050732        3.8052504835        3.0937951313
 O         -1.4403258796        3.1003215864       -3.4021850333
 H         -2.1782063592        3.0686889083       -2.7788713925
 H         -1.3501452273        2.1991950770       -3.7385886619
