  87

 H         -0.5425054113       -1.1597996588        0.9180873600
 C         -0.6112510051       -0.5412956738        0.0100749180
 H         -0.5391308396       -1.1969144473       -0.8712436601
 C          0.5103658648        0.5037878334       -0.0094871837
 H          0.3911098456        1.1518924074        0.8600966294
 H          0.3944399219        1.1152669956       -0.9056411627
 O         -1.7891825170        0.2100258095       -0.0077307040
 H         -2.5646581753       -0.3620747641        0.0026734604
 N          1.8637421186       -0.1172780951        0.0059475210
 H          1.9871272141       -0.7237037742       -0.8163106226
 H          1.9839787965       -0.6890763202        0.8531041602
 H          2.5930828886        0.6072400316       -0.0077051378
 O          3.3043551978        2.1243190316        0.2183324017
 H          2.7114751248        2.6609725043       -0.3677424489
 H          2.9755617276        2.2584121054        1.1359952634
 O          2.1568051460       -1.0002407131        2.5364514386
 H          1.4900256758       -1.6905255100        2.7296723758
 H          3.0216308370       -1.4185872281        2.5137115162
 O          2.0237122194       -1.1365469441       -2.5158876785
 H          2.9885002853       -1.1797668921       -2.6115877293
 H          1.7291678015       -0.2898303200       -2.9127477934
 O          0.9877922137        1.2169222062       -3.3464670756
 H          0.0179658693        1.0696595432       -3.1719500361
 H          1.0507467977        1.4815201653       -4.2651077684
 O          2.2686257975        1.8555600882        2.6455625333
 H          2.1984831955        0.9027154342        2.7990598988
 H          1.3703681898        2.2185718222        2.7090001328
 O         -3.4582078234       -1.8334202771        0.2298333210
 H         -4.3806477194       -1.5677982104        0.3616899321
 H         -3.1116350433       -2.0437471327        1.1244877889
 O          1.0647476197       -3.5298087754        0.2054658464
 H          1.9780931321       -3.2059155872        0.1169424731
 H          0.6326433036       -3.4155694224       -0.6550075084
 O          4.6550071474       -0.9429626153       -1.9189316192
 H          4.8170030803        0.0199043442       -1.9546678520
 H          5.4619057764       -1.3037900070       -1.5176111813
 O         -1.5313033825        0.7906692519       -2.7663902253
 H         -1.8664341650       -0.1209716273       -2.8317668380
 H         -1.7385445073        1.0659981555       -1.8630276941
 O          1.6357523485        3.2381446599       -1.4801964713
 H          1.4629424108        2.6356609648       -2.2204638279
 H          0.7711346292        3.4340133318       -1.0809395181
 O          3.5379108215       -2.3384372602        0.1833408897
 H          4.3035194360       -2.8037106663        0.5264849092
 H          3.8839820582       -1.8532461140       -0.5891620305
 O          0.2456498048       -2.8981621337        2.6168703637
 H          0.2927323533       -3.6799571664        3.1691029287
 H          0.4589785819       -3.1986050823        1.6969570467
 O         -5.7975033839       -0.4419390647        0.5196365217
 H         -6.6689687512       -0.6509125687        0.8577163428
 H         -5.4686642430        0.3366881874        1.0108376374
 O         -2.4970266854       -1.7789132255       -2.3801286554
 H         -1.7157931532       -2.3364401032       -2.5033931299
 H         -2.8482363489       -2.0150703517       -1.5059473902
 O         -2.3794629534       -1.8968338757        2.6756277773
 H         -2.3204957225       -0.9599339717        2.9168171772
 H         -1.4865273221       -2.2649887985        2.7606935656
 O         -2.2696048987        0.9311899588        2.5458225628
 H         -2.0535063982        0.7334315953        1.6083354423
 H         -3.1820580932        1.2553318735        2.5132995733
 O         -4.7013670862        1.8410557354        1.5816522710
 H         -5.2819840068        2.5546491658        1.8496765595
 H         -4.2458682349        2.1333746638        0.7563804664
 O         -0.3592914081        2.7814390931        2.5727538362
 H         -0.5111206675        3.4762973817        3.2142700186
 H         -1.0603330362        2.1014590583        2.7123464375
 O         -3.4951209009        2.4808554440       -0.7272450224
 H         -3.7899843921        1.6670707625       -1.2117649056
 H         -3.8004409035        3.2188243543       -1.2585235958
 O          6.3533456350       -1.6169276290        0.1145628541
 H          5.8976532032       -0.9814373571        0.6957300081
 H          7.2920932912       -1.4493947714        0.2020279633
 O         -0.8047297746        3.2826277648       -0.1947239503
 H         -1.7081209196        2.9760458453       -0.3540480066
 H         -0.6607166418        3.2422434666        0.7612118833
 O         -4.5003983613        0.3269811934       -1.8572585451
 H         -5.0846689241       -0.0720743810       -1.1969203950
 H         -4.0023096345       -0.3882816359       -2.2678614677
 O          0.0800295741       -3.0022810009       -2.3653494956
 H          0.2188585931       -3.7482205327       -2.9510530782
 H          0.7936618655       -2.3593103081       -2.5514202840
 O          4.8652087454        0.1769165180        1.6197311138
 H          4.9982893631        0.5621503394        2.4873669080
 H          4.5550559887        0.8961548246        1.0547600255
 O          5.1162217989        1.7163118000       -1.7958611862
 H          5.1335378391        2.4091402613       -2.4565677205
 H          4.5885797557        2.0476265308       -1.0533399324
