  116

 H          0.4630927076        1.1941025328        0.8323452958
 C          0.5529035761        0.5095402430       -0.0251092077
 H          0.4633421182        1.0989800597       -0.9466436098
 C         -0.5779259333       -0.5149488605        0.0205351874
 H         -0.4518492549       -1.1270258236        0.9278134321
 H         -0.4840892691       -1.1748678656       -0.8448928485
 N         -1.8603253885        0.1647702475       -0.0623309409
 H         -2.6131021664       -0.5138473280       -0.0751527666
 H         -1.9956541839        0.7570092264        0.7508171932
 O          1.7808081027       -0.1833448059        0.0209869107
 H          2.5006908393        0.4507195085       -0.0567171281
 O          3.9569607767       -0.9938214494       -1.3806407503
 H          3.9686264012       -1.3378876116       -0.4717994625
 H          3.2057522496       -1.4570269715       -1.8253161279
 O         -1.5952852698        1.3223425358       -2.4990625103
 H         -0.9144636689        2.0068043871       -2.4706518009
 H         -1.6990781070        0.9874319780       -1.5694758325
 O          1.8829516220       -2.1679309807       -2.4798543969
 H          1.2259020694       -1.5555155058       -2.8600863715
 H          1.3946465749       -2.6574841885       -1.8011391041
 O         -0.1596799708       -0.7057137197       -3.5623830216
 H         -0.7007909304        0.0441015790       -3.2349651840
 H         -0.7066946084       -1.5036409725       -3.4303488543
 O          3.1485118478        1.3534571166       -2.5703638074
 H          2.8917827761        0.9875884693       -3.4454149385
 H          3.3626178165        0.5596523430       -2.0440542881
 O          4.3366215538       -2.0443649110        1.1900886996
 H          3.4961672421       -2.0740977358        1.6908112169
 H          4.8195895333       -1.2779639307        1.5364721001
 O          0.8787477963        2.8152020762       -2.4125522801
 H          0.9523129167        3.4201974763       -3.1515988902
 H          1.7129752563        2.2941770840       -2.4052845435
 O         -3.6965276846       -1.9165961759       -1.1703770262
 H         -3.8428423804       -1.0930869408       -1.6850746058
 H         -4.5621564210       -2.0972096763       -0.7659951918
 O          3.6442371391        1.6199728203        0.6568674104
 H          4.1174720262        2.0416675061       -0.0891682952
 H          4.3460446702        1.0878470957        1.0944545260
 O         -4.2237523243        0.5259989476       -2.2366157305
 H         -4.2315923275        1.0790167914       -1.4330865918
 H         -3.4348958870        0.8148684964       -2.7152142234
 O         -4.1777396073        1.9539317775        0.0885649969
 H         -4.8653167967        2.2964865303        0.6856700869
 H         -3.3474863917        2.4053338758        0.3401304306
 O         -1.9611829922        3.0462153095        1.1688276359
 H         -1.4704427828        2.5062661171        1.8182258692
 H         -1.2749339796        3.5462985012        0.6719667610
 O         -0.8776017443        1.4004108499        3.0454834183
 H          0.0753217230        1.2278458273        3.1384525769
 H         -1.3162147730        0.5342213576        3.0830673713
 O          1.8361886322        0.8045403383        3.0455581476
 H          2.4269122430        1.0793380421        2.3362857737
 H          1.8401429504       -0.1675120095        3.0098561510
 O         -2.3484435433       -0.9719271693        3.0673972486
 H         -3.1356661735       -0.7577261437        2.5104025209
 H         -2.6942780230       -1.1844904989        3.9349918999
 O         -4.5178563815       -0.2595570511        1.6801791384
 H         -5.0753580179       -0.9096437762        1.2170831947
 H         -4.3129978202        0.4314600079        1.0174380369
 O          1.8522215933       -1.8051581152        2.1714337573
 H          1.0919501200       -2.3941570865        2.2794787476
 H          1.7087411626       -1.3125989831        1.3317335656
 O         -0.6903521418       -3.0423616346        2.1303927224
 H         -1.3677065340       -3.5382955710        1.6321695835
 H         -1.1961668046       -2.3372552482        2.5660005812
 O         -2.5166311313       -3.9787110901        0.3527005155
 H         -2.1344181786       -4.5519598689       -0.3151024325
 H         -2.9149170573       -3.2332414998       -0.1212378533
 O          0.4446258963       -3.6073930367       -0.5168561328
 H          1.3103180426       -4.0348146768       -0.3906890871
 H          0.1289649277       -3.3855472594        0.3692381187
 O          0.1106116550        4.1515335628       -0.0643864234
 H          0.8571261539        4.1075692513        0.5595722933
 H          0.3995554091        3.7019226118       -0.8727327300
 O          2.1504038488        3.6588495003        1.7312829204
 H          2.7053782653        2.9709123270        1.3229902382
 H          1.7881752779        3.2785416160        2.5350340858
 O          5.8037845937        0.2906505089        1.4833922332
 H          6.1860701772        1.1402720622        1.7566798293
 H          6.1464403730        0.1471517433        0.5697607150
 O         -6.0943216041       -1.8481327089        0.1190491076
 H         -6.7993723037       -2.4681066528        0.3013676121
 H         -6.4594780140       -1.1889435596       -0.5425159469
 O         -1.4512163245       -2.8937878233       -2.5824185631
 H         -0.8550299976       -3.2326451714       -1.8999363329
 H         -2.2630452258       -2.6021436023       -2.1427319241
 O          3.1231738593       -4.1590096977       -0.4092341656
 H          3.6193437286       -3.5784252735        0.1793867091
 H          3.3912155676       -3.9395961432       -1.3051467549
 O          6.4797565684       -0.1547856172       -1.0938483445
 H          5.6013160066       -0.4507280582       -1.4028084485
 H          6.9501988560       -0.9848844946       -0.9143290850
 O         -6.8750569813       -0.0942718254       -1.6299789251
 H         -7.1431575829        0.7156696766       -1.1557914717
 H         -6.0569345549        0.1294493924       -2.0977219277
 O         -5.9169005407        2.1586041618        2.1964377817
 H         -5.7128908708        1.2253201996        2.3510848437
 H         -5.2487588054        2.6546517663        2.7109865791
 O         -3.6706578013        3.2029465194        3.2708422234
 H         -3.0974924709        2.6767210727        3.8327507867
 H         -3.1291876744        3.4079640740        2.4865626657
 O          5.3342513929        2.4179636490       -1.3087181554
 H          5.9450357366        1.6690483595       -1.3668681955
 H          4.6667483842        2.2614291543       -1.9985172313
 O          2.2146188768        0.0370461560       -4.7003421589
 H          1.2842150386       -0.1232618914       -4.4590533963
 H          2.6307599723       -0.8279186128       -4.6889547529
 O         -7.3048432853        2.2081051176       -0.2167932862
 H         -7.0233099733        2.2039519606        0.7115678391
 H         -6.8808110162        2.9629392488       -0.6286481075
 O          6.1842165290        2.9999858518        1.3819958840
 H          6.0822537133        3.0508064466        0.4218735845
 H          5.5106256296        3.5727928371        1.7538615663
 O          6.8933424243       -2.5931083821        0.0767020574
 H          5.9903902487       -2.6176675943        0.4218192799
 H          7.4706759305       -2.6086005180        0.8411820629
