  221

 H          0.4630927076        1.1941025328        0.8323452958
 C          0.5529035761        0.5095402430       -0.0251092076
 H          0.4633421182        1.0989800596       -0.9466436096
 C         -0.5779259334       -0.5149488604        0.0205351874
 H         -0.4518492549       -1.1270258237        0.9278134320
 H         -0.4840892691       -1.1748678656       -0.8448928487
 N         -1.8603253885        0.1647702475       -0.0623309411
 H         -2.6131021662       -0.5138473280       -0.0751527666
 H         -1.9956541839        0.7570092262        0.7508171933
 O          1.7808081027       -0.1833448059        0.0209869108
 H          2.5006908393        0.4507195084       -0.0567171280
 O          1.0460624585       -2.0714461222        2.6207544929
 H          1.6641281374       -2.5314876911        2.0095932698
 H          1.2195734696       -1.1153489846        2.4852089234
 O          1.8156840934        0.4981821851        2.8360638829
 H          2.7512757406        0.4137060926        2.6079314971
 H          1.7967376422        0.4474818637        3.8232196355
 O          1.3070525359        3.1224180967        2.8206179197
 H          0.4096782932        3.3528643917        2.5215374434
 H          1.3797709007        2.1429139669        2.7415737679
 O         -0.5230080250       -0.7578235082        4.6358014339
 H         -1.4520957713       -1.0169592700        4.7876325592
 H         -0.1131812247       -1.4798882689        4.1474163589
 O          3.8182798889        1.6263023603        0.3925053184
 H          4.1461783271        1.3446934699        1.2760694395
 H          3.4394714674        2.5194515717        0.5260985824
 O         -1.3087420998       -3.2808493789        2.0478967131
 H         -0.4269757929       -2.9291776145        2.2638919780
 H         -1.2304444037       -3.7451020672        1.1868766355
 O          1.6936580229       -2.0932066941       -1.8850912398
 H          1.5559431118       -2.9852190355       -1.4927166282
 H          1.7609329178       -1.4498715221       -1.1501812841
 O          4.2928024856       -1.5572856977       -0.5152154846
 H          4.6994295315       -2.3346904371       -0.9670542612
 H          3.8702880856       -1.0108356682       -1.2115003455
 O         -1.5516319947        0.8459513522       -2.6366474841
 H         -1.7453138341        0.6368842894       -1.6826279589
 H         -1.0218420159        0.1020123072       -2.9908402848
 O          2.8352066515        4.0951036366        0.9145583912
 H          2.1728788419        4.4244340044        0.2929944798
 H          2.2964779541        3.7999552743        1.6906483076
 O         -1.1436111580       -4.3595225226       -0.3885019570
 H         -1.3670782877       -3.7203896741       -1.0919247570
 H         -0.2269979421       -4.6275211711       -0.5610828468
 O         -0.1311408370       -1.2178155795       -3.5903499135
 H          0.5052915233       -1.5746048209       -2.9295865309
 H          0.4590283208       -0.8174854297       -4.2598833331
 O          1.9640840380       -0.0317717552       -4.7543086931
 H          1.7149253270        0.8952414315       -4.8857676731
 H          2.4875473697       -0.0311150604       -3.9293168594
 O         -0.9910431366        3.4120878122       -2.8117619235
 H         -1.7264890180        3.7083893888       -3.3871664950
 H         -1.0874015345        2.4289614547       -2.7910522089
 O         -2.0318822789       -2.7067751258       -2.3336379997
 H         -1.4583160791       -2.2222818879       -2.9494995203
 H         -2.6792968648       -3.1953408431       -2.8584864767
 O         -1.5298604335        1.0343914422        2.8216596636
 H         -0.9347706665        0.4622494793        3.3364249874
 H         -2.2418267753        1.2679552328        3.4451457813
 O         -1.1434975452        3.3240852068        1.5889607971
 H         -1.2607294977        2.4273119635        1.9793054583
 H         -1.8366378651        3.8736034095        2.0466780588
 O         -3.3514887002       -1.6041916691        1.9450787251
 H         -2.5199018425       -2.1185148503        1.8700505087
 H         -4.0612805911       -2.2813469377        1.8735696930
 O         -4.7772476644        0.5245191374        1.2496409050
 H         -5.6956652932        0.2155455307        1.3336264327
 H         -4.2003268446       -0.2238182260        1.4899833585
 O          5.9789747192        2.0995283999       -0.9954901569
 H          5.1436260860        1.8714028451       -0.5089833860
 H          6.4670431539        1.2466098215       -1.0488462370
 O         -3.9873697090        1.1652517841       -3.6430839933
 H         -3.0470099356        0.9411473214       -3.4697385457
 H         -4.3191755160        1.3729230603       -2.7408807587
 O         -4.1088227719       -1.4035558306       -1.0523935036
 H         -4.5280397556       -1.1422388480       -1.8927851604
 H         -3.3767014906       -1.9819547990       -1.3183431193
 O          0.5052293847        4.0550729767       -0.5620818025
 H         -0.0774854291        3.8487861747        0.1867649027
 H         -0.0494474426        4.0845025819       -1.3574891370
 O         -4.5744592293        1.7166738215       -1.1267238039
 H         -3.9304728175        2.4311284350       -0.9408817684
 H         -4.5163339230        1.1170147106       -0.3566822735
 O         -2.6800845961        3.5096884588       -0.6699520318
 H         -2.1405054337        3.3452240796        0.1257350297
 H         -2.0753900638        3.5240159193       -1.4354099618
 O         -7.5348319963        0.1052727040        1.0199506033
 H         -7.2418771125       -0.7622346586        0.6710960466
 H         -7.4251939915        0.7577181801        0.2867893184
 O          4.5572991913        0.8844439789        2.8173782704
 H          4.2907727606        1.5433234917        3.4913124452
 H          5.5147627153        0.7751246268        2.8947623888
 O          3.4753821878        0.1643873323       -2.4507350698
 H          3.0162728957        0.9377580562       -2.0831023359
 H          4.2679634980        0.5230095308       -2.9024742899
 O          5.5538939362        1.4302551260       -3.6094658577
 H          5.0628880259        2.1271141091       -4.0994075310
 H          5.7597346003        1.8283561013       -2.7420801479
 O          2.3382923152        2.5340719628       -1.7890622647
 H          3.1021555568        3.1440327036       -1.8012153548
 H          1.6520804368        2.9905033765       -1.2649765345
 O         -3.1955753196        4.5153842784        2.6807354864
 H         -3.5347596032        5.0712253111        1.9391192051
 H         -3.9173405119        3.9001142289        2.8651244576
 O         -6.4448722573       -2.1147182858       -0.0132288197
 H         -5.5315319776       -1.8972199669       -0.3150919255
 H         -6.3384914132       -2.8175212588        0.6356227400
 O         -7.2193129146        1.7090739819       -1.0694583203
 H         -6.2502567033        1.8346702640       -1.1588201486
 H         -7.4360330195        0.9841847032       -1.6806195157
 O          5.7577998888       -1.6607624062        1.8085931334
 H          5.1208118154       -1.3855995027        1.1340910847
 H          6.2792427952       -0.8710516876        2.0625648246
 O          7.3022089286        2.8998303308        1.2318850380
 H          6.8493624893        2.7350930441        0.3821728841
 H          6.6692894244        3.3945108588        1.7773483730
 O         -5.3215508114       -1.1349168694       -3.4841231113
 H         -6.2431697767       -0.9322548743       -3.2704631204
 H         -4.8898494249       -0.2964658956       -3.7589049028
 O         -7.7117607480       -0.8051806479       -2.1360122393
 H         -7.3150731334       -1.4032460861       -1.4818391218
 H         -8.6330521518       -0.7037741904       -1.8374749804
 O         -5.0756254852       -3.6427486215        1.9278056608
 H         -4.7327744861       -4.1003863501        1.1317900408
 H         -4.5674225276       -4.0168905436        2.6774093090
 O         -5.2189596004        2.4873283699        2.9423494865
 H         -4.9209111068        1.8467600977        2.2546442919
 H         -6.0328909093        2.0574722018        3.3141765310
 O         -3.3254958122        3.7712720200       -4.0545293492
 H         -3.9823710721        4.2622943333       -3.5588234038
 H         -3.6360899209        2.8415219355       -4.0800868818
 O          2.8743725056       -3.2454251914        1.1151389910
 H          3.3188436438       -2.5725474835        0.5643738402
 H          3.4859565679       -3.4783694649        1.8386407103
 O         -3.2216484467       -1.1585844252        4.5646113372
 H         -3.2267456986       -1.2148664670        3.5766991209
 H         -3.3936577764       -0.2274796193        4.7708944241
 O          3.5123815615       -2.4067301964       -3.8379781254
 H          2.9028960199       -2.2134097906       -3.0904511551
 H          3.1077531657       -1.9911754692       -4.6040585928
 O          6.0164196918       -1.3624718270       -3.5886728974
 H          5.9344613038       -0.4944571345       -4.0016247626
 H          5.1300194464       -1.7742992630       -3.6785321893
 O          4.5721281779       -3.5281584243        3.2203694556
 H          5.0893094585       -2.7804085424        2.8452718168
 H          5.1715663257       -4.2716069217        3.2771089597
 O         -9.8354838438       -0.1373271778       -0.5620291721
 H         -9.2537024222       -0.1281424196        0.2171152457
 H        -10.1224126866        0.7683045524       -0.6887492526
 O          6.6744518589       -0.4514531133       -1.1466025918
 H          5.8675920998       -0.7854161326       -0.7122874986
 H          6.5988615632       -0.7748923842       -2.0671325581
 O          7.2900251304        0.4518893012        2.3398382804
 H          8.0011323081       -0.0232115871        1.8603412375
 H          7.3519091376        1.3733240393        2.0036164893
 O          1.3762198581        2.6414966273       -4.2779543033
 H          0.5231514251        3.0851677430       -4.2168286874
 H          1.6651222463        2.5289478869       -3.3456159585
 O          3.4146784815        2.6026021032        4.5629673165
 H          3.0457347438        1.9472446152        5.1707513100
 H          2.6477987029        2.9955520302        4.1179679462
 O          4.4247890393        4.2586757644       -1.6838749275
 H          5.1882518917        3.6863583171       -1.5081343173
 H          4.2865511629        4.7783956489       -0.8881858535
 O         -3.2492464353       -4.0384219510        3.8685400756
 H         -3.2410539164       -3.2664863728        4.4436650819
 H         -2.4739072736       -3.9454779666        3.2889908615
 O          5.1237573592        3.9430487960        2.5374419012
 H          4.7727908734        3.7153151175        3.4036330023
 H          4.3663584364        4.1750313745        1.9851803733
 O          8.8378902385       -0.7581661555        0.4823989734
 H          8.1035102445       -0.6911230251       -0.1556809385
 H          9.3684429759        0.0423688705        0.3037809485
 O         -3.4339527385        1.6133965249        4.6702065211
 H         -3.1958056097        2.3033978035        5.2883305771
 H         -4.1572202107        1.9803667177        4.1003582165
 O         -7.2175352477        0.9392170889        3.6260457857
 H         -6.8103227027        0.0980453672        3.8896712785
 H         -7.5980719976        0.7448629845        2.7562178276
 O         -5.9152616480       -1.4868322464        3.7456715380
 H         -5.0967607090       -1.5247513758        4.2595167398
 H         -5.9343329183       -2.2787978871        3.1995657626
 O         -3.9874294118       -4.5894516493       -0.3424949136
 H         -3.0297515278       -4.7072200733       -0.2957112113
 H         -4.1840212916       -4.2598880570       -1.2309970386
 O          1.9145545263        0.3077121346        5.4707840011
 H          2.3587050212       -0.5651847080        5.4428430233
 H          0.9784851525        0.0982716492        5.5950686379
 O          2.6940973463       -2.1764515405        4.8365512090
 H          3.4720432097       -2.6549726173        4.5265865750
 H          2.0451393326       -2.2652768179        4.1163554705
 O         -4.2084744588        5.5222093028        0.4346320393
 H         -5.0935242121        5.1237623349        0.4966151622
 H         -3.6950939182        4.9204083837       -0.1263609089
 O         -6.4162179923        3.9276889641        0.7957685009
 H         -6.1274425904        3.4621933744        1.5954633247
 H         -6.8728137094        3.2919059509        0.2376899716
 O          1.5492406090       -4.5351976411       -0.8556287138
 H          2.0129670853       -4.2998009985       -0.0336107284
 H          2.2413194238       -4.8721363105       -1.4668003133
 O          3.6128100985       -4.9003807430       -2.5088125259
 H          4.4296110487       -4.6499631420       -2.0525053551
 H          3.5094285416       -4.2333189497       -3.2020806572
 O          5.7963891636       -3.4849672734       -1.5423945030
 H          6.4850444287       -3.5289035888       -0.8360633498
 H          6.2208197869       -3.1247220280       -2.3268686779
 O          7.4992514152       -3.2763092782        0.4846419224
 H          6.8936697398       -2.7719690510        1.0614458623
 H          8.2848919401       -2.7204146584        0.4206547430
 O          9.5301447982        1.7528614999       -0.1929841187
 H          8.9774398723        2.3192221188        0.3594552775
 H          9.1650548900        1.7968049508       -1.0874756916
 O         -4.4904598426       -3.6834853426       -3.0281466861
 H         -4.8277271645       -2.7923838387       -3.2462589001
 H         -5.1139741002       -4.3063564176       -3.3986108487
 O          4.0352394069        3.4271427629       -4.4574499070
 H          3.0966753657        3.2179718209       -4.5961782796
 H          4.0821453838        4.0285898542       -3.7064182980
 O          8.3636005647        1.2908427998       -2.7684149118
 H          8.7207634681        0.4145137015       -2.9216339372
 H          7.5868811587        1.3798481622       -3.3338529233
