  601

 H          0.0000034707        0.0000153343        0.0000006655
 O          0.6145821429       -0.8149315003        0.0043148288
 H          0.8360303728       -1.0740315930        0.9469678045
 H          0.2006695287       -1.5600080920       -0.5915138839
 O         -0.8830424489        1.2237015454        0.1327985382
 H         -0.5917510489        1.8507784537       -0.5615175703
 H         -1.8477605038        1.0953611324        0.0101844181
 O          1.2337349759       -1.2208055288        2.4804649890
 H          1.1270118976       -2.1814699384        2.4297032820
 H          2.2016832798       -0.9805170643        2.4519037185
 O         -2.1447335178       -1.5724558093        0.2333553303
 H         -1.8848738750       -0.9677423909        0.9535005821
 H         -2.8733857011       -2.1015082473        0.6003565747
 O          2.2013472144        1.1797707442       -0.3301648801
 H          2.9045236636        0.5081509440       -0.2952185032
 H          1.6359836409        0.9384058158       -1.0855752078
 O          0.8568220340        2.5047934808        1.8684591208
 H          0.2624449976        2.0586214863        1.2487255121
 H          0.8160814270        3.4684969688        1.6702823758
 O         -1.2355645239       -0.2955416531        2.3734100800
 H         -1.5326422642        0.6173279656        2.5614704296
 H         -0.2806046840       -0.3501127457        2.5133332671
 O          1.9465799643       -3.5628093233       -0.5860810765
 H          1.1145989737       -3.3222179992       -1.0198518464
 H          2.1170256336       -4.4939066980       -0.7450867488
 O         -1.9184544755       -0.2126301429       -2.1699921033
 H         -2.1916981446        0.7303619718       -2.0712417232
 H         -2.0882886288       -0.6517881725       -1.3178040795
 O          0.7100912248        0.3733348580       -2.3841551030
 H          1.2064888950       -0.4580257826       -2.5370941244
 H         -0.2362592741        0.1435366246       -2.4299554077
 O         -0.2770380123       -2.5017431576       -1.5541066141
 H         -0.2586025272       -2.1817636996       -2.4897655893
 H         -1.1762217878       -2.8824633209       -1.4488285560
 O         -0.0903173733        3.0584040105       -3.9076173662
 H         -0.8677581597        3.5947107559       -4.1946057308
 H         -0.1901957135        2.1612345764       -4.2904799776
 O         -2.3380061324        2.4002221277       -2.0140936407
 H         -3.2416305865        2.6877829522       -2.2505996674
 H         -1.7912694380        2.6715803146       -2.7551255906
 O         -2.1397139276       -5.0523744936        0.5042695422
 H         -2.6697548200       -4.4598984739        1.0698908112
 H         -2.5054949637       -5.9434041330        0.6133465044
 O         -0.5020096912       -1.8116771156       -4.0506988373
 H          0.2224132400       -2.0352727030       -4.6718004515
 H         -1.2477694967       -2.3915194549       -4.2852779847
 O          2.2099324709       -1.7524652385       -2.8773100990
 H          1.6768712975       -2.4869602721       -3.2070066319
 H          2.9005769126       -2.1733220479       -2.3205436030
 O         -0.2913910515       -3.1698946377        1.5588747108
 H         -0.8222605058       -3.5940387793        2.2534044098
 H         -0.9221002452       -2.7613696250        0.9463548997
 O          0.1110099228        3.2005855238       -1.3027823943
 H          0.2230379883        2.9762733230       -2.2494480601
 H          0.9840640402        3.4971513058       -0.9691519679
 O         -1.2351149412        4.2459442302        3.1577408478
 H         -1.8154404306        4.9840270336        3.4336320873
 H         -1.1015350907        4.3531251260        2.1950557803
 O         -2.3610421991        1.9354019344        3.0931447518
 H         -2.3355378547        1.6264808483        4.0206813327
 H         -1.8323782369        2.7768850165        3.0959404134
 O         -3.5528552504        0.7958612901       -0.1925810552
 H         -3.9282021889        0.2548315886        0.5193464116
 H         -3.8329106228        1.7132833749        0.0073783436
 O          2.5619890401        3.6723380068       -0.6500470460
 H          2.5762352482        2.6914006603       -0.4952702857
 H          3.0807553182        4.0861249652        0.0623313595
 O          3.6358033438       -0.3416435988        2.4195445484
 H          3.5863783040        0.6186996897        2.1741970649
 H          3.8810745950       -0.3467244250        3.3761264045
 O          3.5131802890        2.1637321040        1.8660974414
 H          4.0954733924        2.4533475555        1.1418764077
 H          2.5713075784        2.2433472613        1.6119745969
 O          4.1401460779       -0.6400658759       -0.3296720912
 H          4.2974966055       -1.4486985126       -0.8722820709
 H          3.9806112458       -0.9491917655        0.5685704655
 O          4.4497939007       -0.7229764479       -4.1178026182
 H          3.5957836300       -0.8590568915       -3.6750514510
 H          5.1539991092       -0.7762477650       -3.4411485050
 O         -3.8874091711       -1.1298356533       -3.6054069229
 H         -3.0698501087       -0.8349949121       -3.1290964983
 H         -4.2742663292       -1.8310492156       -3.0686067746
 O          2.4927232912        1.3832130444       -4.0591200382
 H          1.6820242435        1.1034657907       -3.5927667683
 H          2.5470577381        2.3567330924       -3.9885344078
 O          1.4697935508       -2.2205646354       -5.7324846833
 H          1.7848190320       -1.3315100588       -6.0019691272
 H          1.4143923811       -2.7624054027       -6.5400270751
 O         -5.3781538838        0.5628083193       -2.1862285044
 H         -4.8069934394        0.5259232677       -1.3929526819
 H         -4.9602116715       -0.0035977944       -2.8650019660
 O         -4.9425181608       -2.5066162028       -1.4453597530
 H         -5.2765154180       -1.7886549159       -0.8453635601
 H         -5.0420071149       -3.3465340932       -0.9486304199
 O         -1.4564273617        3.6100527708        5.9303674545
 H         -1.6870756034        3.1494441501        6.7584407614
 H         -1.0043596250        2.9725726180        5.3528553103
 O          0.1204825195        1.8959326440        4.3563496602
 H          0.8408194135        2.2158065287        4.9454745543
 H          0.4111102114        2.1185058266        3.4450795607
 O          5.1153198673        2.8706380069       -0.2174265890
 H          4.7490027855        2.5256863658       -1.0546211986
 H          5.7718724703        3.5482132839       -0.4419872797
 O         -1.6942542407        4.1333023292        0.6087915130
 H         -1.1983625044        3.7064491862       -0.1017767843
 H         -2.5652144903        3.7132672388        0.6529994700
 O          1.1284195886        4.7510057557        4.2216574578
 H          1.0138768120        4.8741240819        5.1889993852
 H          0.3070852174        4.3482967231        3.8811179213
 O         -0.4635485938        0.6636460001       -4.9139452412
 H         -0.5408932123       -0.2358072653       -4.5309954646
 H         -0.2721032229        0.5217117025       -5.8622939263
 O          0.5229840844       -0.5937304704        5.0943312771
 H          0.8284627041       -1.0399630779        4.2896504001
 H          0.2559399968        0.3171163878        4.8224712971
 O          0.7675172470       -4.1626435479       -3.4129414335
 H          0.4937593284       -4.4349272761       -4.3076413018
 H          0.2213151555       -4.6532989789       -2.7755396647
 O          4.4236879672        1.3611186151       -2.2276804525
 H          4.3886275964        0.5731460330       -1.6666015453
 H          3.7406494765        1.2780261162       -2.9265693966
 O         -2.5703828176       -3.6485458520       -1.6634482151
 H         -3.3579465218       -3.0962737907       -1.5164632936
 H         -2.5048830026       -4.2626712821       -0.9008327231
 O         -5.8732539096       -0.8153759669        0.2514777629
 H         -6.8446461896       -0.8301429757        0.1071248387
 H         -5.7188765543       -1.2976083613        1.0674628151
 O         -2.8925121025        1.5929775192       -4.7401068780
 H         -2.0426671315        1.0988509896       -4.7858867053
 H         -3.6059069234        0.9617010120       -4.6153656516
 O         -2.4480432515       -1.2032295262       -5.9031462590
 H         -3.0895165339       -1.2648908158       -5.1791000495
 H         -2.9423748517       -0.9108879274       -6.6962569767
 O         -0.2341610390       -5.6363103407       -1.3927537541
 H         -0.6418085050       -5.2687933490       -0.5948741390
 H          0.6871215776       -5.8981131869       -1.1355414944
 O          4.3769847800       -4.9224734656       -0.3210723346
 H          3.7398961717       -5.6049797818       -0.5770342884
 H          5.2641927672       -5.3059131374       -0.4230347245
 O          4.3870960670       -2.7602290730       -1.7988799480
 H          5.1507134289       -2.8439795138       -2.4004986566
 H          4.3467875005       -3.5792925422       -1.2507655772
 O          3.5808021722        3.7989910757        3.8954806446
 H          3.5874349495        3.2572957075        3.0779522972
 H          2.6572213890        4.0967371251        4.0199123532
 O          0.5296727496        5.2816952185        6.7316356042
 H         -0.3138458911        4.8079323435        6.6091315275
 H          0.9679090596        4.8664774520        7.4790930609
 O         -4.3890855358        0.2381603953        2.2919184759
 H         -5.2719195648        0.6417460823        2.1314132130
 H         -3.7613912411        0.9542280769        2.4668980677
 O         -2.3641278512       -2.1556948846        3.8285815921
 H         -3.1431415877       -1.6893917937        4.1905337793
 H         -1.8533483039       -1.4758613331        3.3353114313
 O          3.1357059034       -2.5947749055        4.1618068618
 H          3.3466119866       -2.6657017701        3.2168348258
 H          3.6575913463       -3.2812384474        4.6192144444
 O         -1.2246539431        6.7561337451        0.1320637640
 H         -0.5394573282        7.1071243862        0.7090610572
 H         -1.4091226682        5.8495410663        0.4446319512
 O         -6.8380335737        1.1513563966        2.0380096475
 H         -7.0574333473        1.7773441243        2.7598306141
 H         -7.2690574238        1.4612152013        1.2101087015
 O         -4.2709318877        3.1937185438        0.5879620651
 H         -4.2228895105        3.8431620343       -0.1509171901
 H         -5.1214752812        3.3343703091        1.0251702340
 O          3.3818836242       -2.9637938949        1.4915150542
 H          4.2970276985       -3.0818355105        1.1623515577
 H          2.8126798839       -3.1176956502        0.7052545170
 O          2.8680801562        3.8414690246       -3.2594037064
 H          2.7375868051        3.7965305783       -2.2871643230
 H          2.3038662212        4.5613648604       -3.5877229717
 O          5.5384158024        2.2858886923        4.9203815250
 H          4.7825216692        2.8313653537        4.6156677756
 H          5.2438530432        1.3514395586        4.8383785568
 O         -0.0878477248       -1.6338529310        7.5054246850
 H          0.5555372911       -2.3828035462        7.5696645889
 H          0.1182125666       -1.1977863038        6.6539115673
 O         -1.3017162064        5.3153431137       -2.1332336573
 H         -1.0444003190        5.9974055433       -1.4978256151
 H         -0.7605064870        4.5381217918       -1.9200262994
 O         -0.0554157314        7.1418837864        3.9134750019
 H         -0.9944120217        6.9525765376        4.0133133718
 H          0.4136556625        6.2763694424        3.9229431398
 O          3.2759993847       -5.4939950678        2.3059351611
 H          3.3594230647       -4.5550283174        2.0252782999
 H          4.1114136756       -5.9179782056        2.0493608220
 O         -4.5453221709        3.3600874124        3.5178075877
 H         -4.5446049884        4.2071196882        3.0583475700
 H         -3.7517001775        2.8714586610        3.2415080553
 O          0.7840385338       -5.5730279815        1.1969612616
 H          1.6901369840       -5.5906572836        1.5498136784
 H          0.4687425197       -4.6504307280        1.2618916178
 O          2.6539734486        0.0651691251       -6.3380519443
 H          2.6354930881        0.5495666023       -5.4854366653
 H          2.5952181826        0.7567944158       -7.0310681449
 O         -8.0645476778        1.9644174598       -0.1583790711
 H         -8.3020116377        1.2780341943       -0.7905155148
 H         -7.5968531801        2.6462448325       -0.6619896540
 O         -2.7378228206        6.3754179899        3.7223494717
 H         -3.5984102731        6.2477358403        3.2954516067
 H         -2.9091983367        6.2610241566        4.6982344595
 O         -2.7365271644        1.0559562883        5.5513935279
 H         -2.3680147307        0.6502528391        6.3649142086
 H         -3.3477826245        1.7626161468        5.8617632179
 O         -2.3908086453       -3.7273664594       -4.2632757182
 H         -2.4461294782       -3.7556871740       -3.2858354532
 H         -3.2917650825       -3.5237713153       -4.5904509148
 O         -1.8605925228       -3.1406721408        6.2368652176
 H         -1.8122133462       -2.7879794085        5.3231727046
 H         -1.2708801954       -2.5823853511        6.7834860927
 O         -0.0161226215        0.2462059348       -7.4648770332
 H          0.8040126123       -0.1436636753       -7.8170604608
 H         -0.7240637339       -0.2501767903       -7.9183214002
 O         -4.5920599017        2.7149315621        6.4735853836
 H         -5.3393974733        2.1060704471        6.5081333125
 H         -4.8750215872        3.4734715565        5.9365635743
 O         -3.1800811387        5.7072011619        6.1631126682
 H         -2.6418413947        4.8976327048        6.1342465979
 H         -4.1067171949        5.4450931856        6.1839523209
 O          0.7693889698        5.0989596715        1.3214442783
 H          1.3475491366        5.5983563304        1.9208760253
 H          1.0343597927        5.3531533325        0.4235728825
 O         -3.7271733716        5.0458358715       -1.1644321370
 H         -2.7904018571        5.0329692369       -1.4702356420
 H         -4.2141745849        5.2106532075       -1.9980404504
 O          6.2185060771       -0.7155106139        1.9538786163
 H          6.4093161162       -0.0477822644        1.2643038974
 H          5.2721803209       -0.5906452375        2.1653164127
 O          6.6928995584        0.7699389316       -0.1807783892
 H          6.0114128635        1.4609658092       -0.0221888734
 H          7.4820118179        1.2880107260       -0.4618852780
 O         -3.6303884563       -3.1768880729        1.7228164836
 H         -3.1969508806       -2.9033184638        2.5585337778
 H         -4.5906182233       -3.1491847432        1.8657578165
 O          3.9932853781        4.9806535560        1.2089558453
 H          4.8959440809        4.8270269716        1.5694724335
 H          3.5067880482        5.5258173041        1.8569999701
 O          4.5926826069       -0.1517474174        4.7952517142
 H          3.8866814045       -0.1208554605        5.4791068358
 H          5.1591970655       -0.9317528366        4.9734959338
 O          0.8312753761       -3.7552600822        4.5477034542
 H          1.6563304493       -3.2591678000        4.3261167513
 H          1.0508043540       -4.7007455862        4.4217834694
 O          5.4009362182        4.5127239897       -2.8349181233
 H          4.5197334028        4.1446133847       -3.0664352230
 H          6.0377354926        3.7873176267       -2.9730440293
 O          6.2299064757       -2.1656384641        5.3227920013
 H          6.9947088781       -1.5904588635        5.1841693581
 H          6.3009501330       -2.8646631747        4.6392294756
 O         -8.0079504426        0.1917293217       -2.3926025631
 H         -7.0377067113        0.2816036465       -2.2585553867
 H         -8.0916761067       -0.3413563539       -3.2153543321
 O         -4.4076166233       -0.7174265343        4.6806588002
 H         -3.7654289073       -0.0586101491        5.0577913118
 H         -4.5387635856       -0.4326189951        3.7404561894
 O         -7.8875615631       -1.3193035742       -4.5488810627
 H         -7.2951625992       -1.1906609964       -5.2986788769
 H         -7.5950788289       -2.1393910368       -4.1183542783
 O         -1.5342956002       -4.6849650370        3.4420338775
 H         -2.4077990728       -4.6165027563        3.8622074836
 H         -0.8672312706       -4.4027847931        4.0850070667
 O          2.6645664554        0.1025227523        6.5434115298
 H          2.5690841995        1.0864756042        6.4821854456
 H          1.9051582383       -0.2436594576        6.0251981036
 O         -4.5158737453       -3.0668464583        6.2264125202
 H         -3.5492613097       -3.0100874140        6.3834158530
 H         -4.7569432214       -2.3557730897        5.6115055212
 O         -2.8279023418       -7.6597489603        0.9437809472
 H         -2.1172542456       -7.5467592834        1.6216470427
 H         -2.4133969383       -8.1107026018        0.1981398485
 O          6.4568814539        1.9956187479        2.3213978272
 H          7.3759415403        1.7145556610        2.1616063203
 H          6.3104085506        2.0284860240        3.2790713734
 O         -5.1279915219        5.8972343781        2.4753772891
 H         -5.8621689726        5.3611108724        2.1255614601
 H         -4.8729043893        6.4745276168        1.7211147890
 O         -1.0694530453        6.9318961550       -4.2514981473
 H         -1.1793932460        7.5763492936       -3.5293291158
 H         -1.5420093753        6.1332605042       -3.9719157306
 O          6.4674347498       -0.7058708920       -2.3528719747
 H          6.4642265453       -0.1745521912       -1.5295415062
 H          7.3594502542       -0.7042734154       -2.6945843780
 O          6.4658672971        4.5665934154        1.9541376078
 H          6.4092060114        3.5755011454        1.9594559950
 H          6.8154328099        4.7624750549        2.8522888725
 O          1.8852651856        2.5734432694        6.1480426602
 H          2.5031522886        3.3332466793        6.1961860908
 H          1.3171788947        2.6781639519        6.9419380104
 O          0.4415232752        2.8340662483        8.3477960091
 H          0.7276642644        1.9889228807        8.7490618042
 H         -0.5034189860        2.9070473488        8.5204250774
 O         -8.0805757863       -1.1159824953        2.5261218011
 H         -7.6212101726       -0.2491693262        2.4096969076
 H         -8.6275241810       -1.1998301304        1.7336253493
 O         -4.2176630446        7.1910269246        0.3124604709
 H         -3.5107072268        7.6972528479        0.7680642004
 H         -3.8185907324        6.4015813357       -0.1202453567
 O          1.5431821946        6.1067032450       -1.1045480193
 H          2.5156066448        6.0630824528       -1.0543070992
 H          1.3243166448        5.9341193265       -2.0519449123
 O          1.3057438999        5.9418503747       -3.6972790491
 H          0.4265993250        6.2807828227       -3.9869073644
 H          1.9484489888        6.6623129107       -3.8065894495
 O          4.3147048321        6.2391328845       -1.0555523677
 H          4.7985067302        5.6357339119       -1.6496593345
 H          4.2820420256        5.7692244486       -0.1836140928
 O          6.7252472767        2.1860459381       -3.3110179372
 H          5.9714028648        1.7444955089       -2.8604834096
 H          6.5445050161        2.0503938059       -4.2495231657
 O          1.1933328893        4.0644996622       -6.0225704227
 H          2.1518634283        3.8975112148       -6.0279412000
 H          0.8558917850        3.7719569865       -5.1550602786
 O          5.3787700433        1.3309054075       -5.5564092121
 H          5.4296157510        0.9996098079       -6.4551116243
 H          4.9105529279        0.6317412418       -5.0428711712
 O         -2.3165793592        4.2814276511       -4.6471235510
 H         -2.2358032348        4.5942640694       -5.5918691643
 H         -2.8074773833        3.4447774258       -4.7222047362
 O          2.5646820851        6.6620407623        2.6353514322
 H          2.8768277459        7.4282941756        2.1182494162
 H          2.5421369696        6.8884807977        3.5816053765
 O          0.0925906010       -5.0583649061       -5.8582318480
 H         -0.5971074972       -5.7148465950       -5.7131334245
 H         -0.3700771062       -4.3034846371       -6.3061031573
 O          1.2926796098        8.6980840668       -0.8788267643
 H          1.3324859963        7.7110157319       -0.9787404053
 H          0.8046476276        8.8318345140       -0.0563579651
 O         -4.9136621058       -3.4500744462       -5.1043580940
 H         -5.6134876494       -3.4545752613       -4.4221018102
 H         -5.1018346452       -2.6260621769       -5.6134716429
 O         -1.2042697044       -8.0235775494       -1.3766574089
 H         -0.7758985785       -7.1166806316       -1.3923885992
 H         -0.8493483171       -8.4580040085       -2.1592965480
 O         -4.7894190690       -5.9479444227        1.9860434131
 H         -4.2595994579       -6.7385980304        1.8445578328
 H         -4.4210143292       -5.5014242597        2.7622395662
 O          6.2946245301       -4.1357332164        3.4332814544
 H          5.5163648337       -4.5157766112        3.8717513223
 H          6.0351018340       -3.8448106159        2.5299529772
 O         -5.5848785022       -1.1870601962       -6.2908195120
 H         -5.1216712208       -0.9994902138       -7.1187165207
 H         -5.5612733054       -0.3492059232       -5.7792682899
 O          5.9639779690       -3.1312967810        0.9992093582
 H          6.1953235269       -2.2289259553        1.3094157960
 H          6.5129579863       -3.3142179095        0.2123121618
 O          3.2051222545       -5.0840075694       -3.1678422281
 H          2.3056607087       -4.7132865842       -3.0475032425
 H          3.6887814449       -4.3924497872       -3.6587992406
 O         -7.3672895186       -3.6529190931       -0.3254026500
 H         -6.9585479372       -3.5804641535        0.5581254832
 H         -7.5203183120       -4.5814733164       -0.5185964602
 O         -6.3715255424        0.5443106856        5.9434914987
 H         -7.1244314804       -0.0512934822        5.9923693248
 H         -5.7230157881        0.0297667259        5.4042926763
 O         -6.2856685350       -2.9930679806        2.0681452503
 H         -6.9501790359       -2.2940238204        2.2789347878
 H         -6.4407025523       -3.6872490936        2.7441459505
 O          2.1929594805       -6.4488987864       -0.8622876786
 H          2.1618951456       -6.8502876500        0.0182419386
 H          2.3165177130       -7.2086765009       -1.4858024335
 O         -4.4224762432        5.7273483439       -3.6076722606
 H         -4.1628807036        6.6485516798       -3.4313962186
 H         -3.6778635807        5.2927913180       -4.0683006527
 O         -1.3640255709       -3.2793772816       -7.0545620908
 H         -2.1325470633       -3.8843096848       -7.1463684250
 H         -1.7008088447       -2.5240616851       -6.5056623652
 O         -4.7735948466        3.0104008129       -2.8788095111
 H         -4.7658458230        3.1965997379       -3.8255622246
 H         -5.0984708782        2.0849372892       -2.7704112307
 O          3.4844293110        8.3610086602        0.7605395452
 H          2.7875958289        8.6443993940        0.1432862032
 H          4.0875292524        7.8224398711        0.2388672962
 O         -4.0351616112       -4.9764338865        4.4655848378
 H         -3.6530017433       -5.8041364727        4.8318478731
 H         -4.2011190417       -4.3600510170        5.2169432039
 O          0.1206120763       -7.7780687431       -3.9180351213
 H          0.8408483946       -7.4593525914       -4.4907092156
 H         -0.6800507374       -7.3297929640       -4.2304614821
 O         -0.3193915731        2.8552674650       -7.8818815063
 H          0.2185392296        3.3307788157       -7.2157059030
 H         -0.1221962737        1.9049728481       -7.7668217908
 O         -1.1985598122        8.4731799873       -2.0047797968
 H         -0.3217337896        8.8604500657       -1.8673617289
 H         -1.3703420077        7.9485197621       -1.2042364783
 O          3.8113515539        3.5299999049       -6.1178242949
 H          4.3990664211        2.8317356716       -5.7816565164
 H          4.1877393953        4.3903210035       -5.8546261013
 O          3.9396716903       -2.3241457484        7.1174131354
 H          4.7605454149       -2.3035358718        6.6101718467
 H          3.5695061840       -1.4329234461        7.0837835557
 O         -6.7715420773       -3.3717548374       -3.1717297942
 H         -7.2624396512       -4.0918420319       -2.7715324797
 H         -6.2264995271       -2.9780077062       -2.4553941158
 O         -5.6664518367        1.1096510663       -4.9517982386
 H         -5.3009628179        1.8625805593       -5.4622035618
 H         -6.4966117693        1.4415737519       -4.5858311138
 O         -6.7753460224        4.1164205295        1.3317350936
 H         -7.6346892282        3.8329543758        1.6440434048
 H         -6.8350646832        4.1907793082        0.3577794451
 O         -6.6972839312        4.0340680814       -1.3751041495
 H         -6.6835490552        5.0149218778       -1.4579634083
 H         -5.8895940963        3.7219871462       -1.8459202993
 O         -8.4816823272       -1.2342266331       -0.1859524908
 H         -8.2985722444       -2.1732262998       -0.3630990918
 H         -8.5359587714       -0.7959874043       -1.0562315020
 O          2.2505967764       -6.5452429728       -5.1661214413
 H          2.6421592151       -6.0982128666       -4.3758119060
 H          1.5674870710       -5.9428279762       -5.5030938799
 O         -0.8286278446       -7.0506041139        2.5531247482
 H         -0.2076334098       -6.5854469458        1.9198542377
 H         -1.2177895414       -6.2668867398        3.0077947886
 O          1.4649114724       -6.3362317665        4.0847244471
 H          2.1971368642       -6.1529868861        3.4629768337
 H          0.7675989993       -6.8014657675        3.6053711269
 O          3.8143130825       -3.1690867458       -4.9128476788
 H          4.3333131028       -2.3721153951       -4.6913471342
 H          2.9074705441       -2.8389073999       -5.0949463768
 O          6.8255114714       -5.9399336785       -0.7424716005
 H          7.3062245709       -5.1233874599       -0.9623193985
 H          6.5533143319       -6.3608436186       -1.5699724846
 O         -2.9233644815        1.9908322885       -7.4510416486
 H         -2.0386683176        2.2837070059       -7.7168431688
 H         -2.9072735843        1.8920692449       -6.4788239103
 O         -3.3752414525       -6.6215854224       -2.2577883742
 H         -3.6337399758       -5.9172629833       -1.6295864149
 H         -2.6224940004       -7.1087733756       -1.8753715665
 O         -4.6871933624        3.3963199631       -5.8386068734
 H         -5.4358378887        4.0300825515       -5.7561539459
 H         -4.2783912187        3.5172806413       -6.6998868591
 O          4.4177351605       -4.6742660897        5.3015744554
 H          4.9854889465       -4.3979913346        6.0226184504
 H          3.7737024924       -5.3095949395        5.7104173405
 O         -2.1256684007       -6.2932199669       -4.6977322556
 H         -2.6325763590       -6.6580412701       -3.9608524168
 H         -2.1464734515       -5.3132041123       -4.5373009998
 O          4.8145501391       -1.3258387741       -7.0781474505
 H          4.5816056799       -2.2524701614       -7.1544947516
 H          4.0248556986       -0.8549572004       -6.7280247889
 O          1.8566355388       -3.7982067685       -7.8671646775
 H          2.6572953459       -4.3012843709       -7.5656233536
 H          1.1508119099       -4.4369905476       -7.9742644877
 O          4.6769159610        5.8801768952       -5.0682191794
 H          4.1590812261        6.6343343860       -4.7771763687
 H          5.1301736921        5.5391509138       -4.2775355229
 O          7.8391199696       -0.3581045265        4.0109745528
 H          8.4818577564        0.3024114007        3.7457420800
 H          7.1694222891       -0.3819478809        3.2872951071
 O          4.9550174850       -7.0502974021       -2.5993592607
 H          4.2859222090       -6.3444713448       -2.6013205576
 H          4.8418941917       -7.5283462611       -1.7554135275
 O          7.1589835936        4.6907843493       -0.5414672415
 H          7.0986062033        5.5501767148       -0.9561276523
 H          7.0556676278        4.8083848216        0.4319988957
 O          2.3102555058       -8.0501617689        1.4010204226
 H          1.5350413942       -8.6061983479        1.1620603020
 H          2.5978937501       -8.3109102838        2.2751296789
 O          8.4939098202        2.4028225757       -1.1686745035
 H          8.1725705878        3.2833830197       -0.9094591251
 H          8.1727850547        2.2904568979       -2.0753743000
 O          6.4205380139       -3.1485630520       -3.5005020854
 H          6.6907955521       -2.5041473492       -4.1809310694
 H          6.3149127726       -4.0100290809       -3.9514583232
 O         -3.6705562732       -0.4328085996       -8.1288472382
 H         -3.0296675544       -0.7736343616       -8.7625722958
 H         -3.4739326059        0.5282475974       -8.0200792673
 O          8.6678095849       -1.2700441743        0.2034204828
 H          7.7812034482       -0.9046167386        0.1037308529
 H          8.6651082126       -1.8179855804        1.0172272943
 O         -2.0784446646        4.9589183376       -7.1370273395
 H         -1.3888550709        5.6603182534       -7.1191663948
 H         -1.6737855969        4.2469206634       -7.6477988587
 O          4.8190865285        5.9238134022        4.8296933666
 H          4.3655268850        5.2293438639        4.3031537674
 H          4.2305287905        6.6823793352        4.8625195320
 O         -3.4016908211       -4.9780611353       -6.8905730034
 H         -4.1006721315       -4.4876703078       -6.4354693896
 H         -3.1237926281       -5.6894639238       -6.2989456024
 O         -4.7261909584       -4.9679062927       -0.5213654033
 H         -4.7869168019       -5.2446231486        0.4120477656
 H         -5.5385066289       -5.3109552667       -0.9526597364
 O          6.9583443719       -1.2715642487       -5.3749311887
 H          6.9902710775       -0.3435743948       -5.1345139067
 H          6.2497474911       -1.3464901064       -6.0430662229
 O          7.5970415208       -3.4114231045       -1.1302945548
 H          8.2353414255       -2.7216393630       -0.8907874085
 H          7.2440581812       -3.2087675280       -2.0227498145
 O          8.5496285529       -2.5765918736        2.5363407720
 H          8.4302949506       -1.8536711028        3.1754030259
 H          7.9681090852       -3.2893076322        2.8160087134
 O          8.9306935266        1.1222854671        1.6083843112
 H          9.0101197991        0.2548159163        1.1671472088
 H          9.1807298935        1.7631287548        0.9381871330
 O          2.6207943102        2.0471184222       -8.1014297410
 H          1.8098306605        2.4699673787       -8.4007516993
 H          3.1028499737        2.7083016695       -7.5770791373
 O         -1.2364078946       -1.5038522628       -9.0323032763
 H         -0.3654297582       -1.5257700626       -9.4357167118
 H         -1.2681839580       -2.2646626284       -8.4129054236
 O          3.3803652653        4.6697037012        6.8019837228
 H          4.0421762049        5.0912711907        6.2258628029
 H          3.8579527588        4.0365157225        7.3518770112
 O         -2.5681371678       -7.0735466003        5.1033299477
 H         -1.8468565418       -6.6097702012        5.5806987771
 H         -2.1369539755       -7.6137317976        4.4394059289
 O          3.8847190372       -5.0426634047       -6.7333478761
 H          3.4039338395       -5.7697196395       -6.2952294833
 H          3.9814772256       -4.3403347313       -6.0507930633
 O         -0.6759217541       -5.5539863570        6.2068634794
 H         -0.1920614699       -5.7094702248        7.0168881549
 H         -1.1098073649       -4.6801561905        6.2972884998
 O         -5.4781512390       -6.1117072725       -4.0035602850
 H         -4.6596214504       -6.3272608094       -3.5390390869
 H         -5.3035401295       -5.3520945233       -4.5674632222
 O          2.3505142817        7.1745141108        5.3099321871
 H          1.4433885112        7.4924777529        5.2290508843
 H          2.3082560272        6.4677449935        5.9673845567
 O          5.8657115667       -6.4157456976        1.8154002572
 H          6.3595243597       -6.2098889198        1.0052768030
 H          6.3198533356       -5.9468534388        2.5243236101
 O          5.9615485765       -5.4935413361       -4.6355933497
 H          5.4268723098       -5.5568562279       -5.4325730520
 H          5.6685712176       -6.1806653001       -4.0203392592
 O          1.8116317662       -1.2230725032       -8.7859729190
 H          2.6885811087       -0.8422364446       -8.8523657782
 H          1.9154246055       -2.1633727248       -8.5688895517
 O         -6.9789936145        2.6347599764        4.2169488109
 H         -6.0597077544        2.8785005485        3.9646229241
 H         -6.8943326768        1.9253033874        4.8754482278
 O          1.5486817067       -3.6321140626        7.1125248497
 H          2.4388047617       -3.2321388484        7.1241244631
 H          1.2491806968       -3.6443918538        6.1697501629
 O          4.5348414569        2.2702012949        7.4405713861
 H          5.0471427426        2.2859277335        6.6091735828
 H          4.8191764793        1.5055111121        7.9366926489
 O         -2.2629950055       -0.0391303799        7.8829222812
 H         -1.6015026015       -0.7189197970        8.0547563717
 H         -3.1609280635       -0.4203831353        8.0111151119
 O         -4.7648802711       -0.8671510025        7.8778118458
 H         -4.8728846293       -1.7601324006        7.5137495867
 H         -5.3745143772       -0.2984033057        7.3888051874
 O          4.5786018614       -8.0402918291       -0.1303267491
 H          5.1509130582       -7.6795650839        0.5532088476
 H          3.7321854386       -8.2210809275        0.3036072880
 O         -6.8528210460       -6.0014386842       -1.7089982194
 H         -6.5986112399       -6.8379982288       -1.2872095088
 H         -6.5218937515       -6.0754533083       -2.6294770965
 O          2.5867547193       -6.0936094603        6.5243343062
 H          2.1453097231       -5.3290186755        6.9347747667
 H          2.0368614615       -6.3632741158        5.7720665551
 O         -6.6879458794       -4.8496110840        3.9025285420
 H         -6.8467556911       -5.6252767134        3.3611964045
 H         -5.7799920399       -4.9534409774        4.2467830062
 O         -5.2403508696       -7.9107978509       -0.6749715421
 H         -4.6907214802       -7.9979496506        0.1072595670
 H         -4.6364781744       -7.7059763694       -1.4051943471
 O         -6.3618448906        6.6265285693       -1.3842337541
 H         -5.7899412567        6.9178732615       -0.6605535410
 H         -5.9693801338        6.9758683438       -2.1884726536
 O         -7.0435022427       -1.9530934965        4.9885667803
 H         -7.0697653655       -2.9124059001        4.9990787982
 H         -7.5662661357       -1.6755220205        4.2248520406
 O         -0.0012625504       -9.1745256950        0.8532297437
 H         -0.3598604863       -8.8429032319        0.0124273583
 H         -0.4292685086       -8.6877141277        1.5658849267
 O         -5.7758892351        4.9924250667        5.2651542438
 H         -6.5339689898        4.4347130290        5.0471748697
 H         -5.6122265493        5.5223227503        4.4759813167
 O         -2.3621128279        2.6057389680        8.2444743830
 H         -3.2799410981        2.8203781947        8.0425686638
 H         -2.3154635765        1.6347564934        8.3149617015
 O          1.2578561864        0.3396694432        8.9407742359
 H          0.6520354313       -0.3648975853        8.6697388309
 H          2.0034689061        0.2786110071        8.3270327949
 O          3.2151585200        7.7452459280       -3.1286804594
 H          2.7495217197        8.4736161434       -2.7110828873
 H          3.7177462067        7.3065781226       -2.4239674188
 O          0.3345266559        8.4987519215        1.7386941687
 H          0.9720935340        9.1668211956        1.9892173409
 H          0.2345636920        7.9365406712        2.5561310913
 O         -2.5167432867        8.5163526177        1.8968773213
 H         -1.5823031950        8.7011168374        1.7399592096
 H         -2.5557597915        7.9440029452        2.6751463463
 O         -7.6702288883        2.6162651013       -3.5620110238
 H         -8.0929877169        1.8032722359       -3.2404184731
 H         -7.5351383270        3.1678274839       -2.7766785627
 O          0.0630163806        6.4684193635       -6.7291738047
 H          0.5982710131        5.6968548065       -6.4741994322
 H         -0.2876781977        6.8508513152       -5.9151864863
 O         -3.8905452848        8.0440423232       -2.3708798782
 H         -3.0168656637        8.4387938839       -2.4659427302
 H         -4.0361074485        7.9615034391       -1.4158442392
 O         -6.6339092931        4.8535955995       -4.9431934177
 H         -6.0066543741        5.2549297449       -4.3192947753
 H         -7.1028617449        4.1427178667       -4.4893987867
 O          2.3795116068       -8.4641230795       -2.4640782052
 H          1.5940285543       -8.4234177071       -3.0233896268
 H          3.1548790861       -8.3177653579       -3.0153913081
 O          7.1036448695        4.5362372227        4.4915311784
 H          6.4287429370        5.1747376980        4.7659918213
 H          6.7701522092        3.6759280999        4.7775483160
