  94

 H          3.5470906519        0.0481661116        0.6401389764
 C          2.4701269289        0.2403533626        0.4810418009
 H          2.1101882771        0.8504564525        1.3247326606
 C          1.7099136298       -1.0520407912        0.4129376520
 H          1.6608882810       -1.5731927690        1.3577552783
 H          2.0229319266       -1.6883440572       -0.4023856851
 C         -1.7096508411       -1.0519769400       -0.4129312031
 H         -2.0227013035       -1.6883387428        0.4023441135
 H         -1.6606357933       -1.5731199169       -1.3577636129
 C         -2.4700604816        0.2403209808       -0.4810361671
 H         -3.5469754254        0.0479571348       -0.6401910823
 H         -2.1101661662        0.8505008816       -1.3246882931
 O         -2.2894622873        0.9483370656        0.7369197622
 H         -2.8636499957        1.7201723508        0.7406006584
 O          2.2893866959        0.9484095930       -0.7368780825
 H          2.8635078484        1.7202952092       -0.7405526171
 N         -0.0002186051       -0.6729534974       -0.0000563393
 H          0.2201712584       -0.0631732103       -0.7839640311
 H         -0.2203351443       -0.0631993736        0.7839509628
 O         -0.6669854664        2.8482671017       -1.9282946388
 H         -0.6782168392        2.0866523056       -2.5322756716
 H          0.2488524910        2.9515445908       -1.6358345761
 O         -0.6384536044        0.6321827529       -3.5686062542
 H         -0.5663491441        0.9092197409       -4.4824991729
 H          0.2263932443        0.1796524228       -3.3619635242
 O         -1.0591339402       -3.2459285553       -3.0396923531
 H         -0.1550156956       -3.1334507470       -3.3516424584
 H         -0.9731071773       -3.6494919324       -2.1651897084
 O         -0.3922283828        2.7298953602        1.4851209384
 H         -0.9515483469        3.4741464532        1.1369459019
 H         -0.8373999738        1.9415298384        1.1219839791
 O         -0.8542566333        1.4306314448        3.9917347419
 H         -1.7254079814        0.9995545322        3.9387815261
 H         -0.8091464838        2.0234718942        3.2276035682
 O         -3.1437143968        0.1465947082        3.1840905880
 H         -4.0557760227        0.4564334943        3.1130634789
 H         -2.7868613626        0.2651913197        2.2814825852
 O          1.6880426063       -0.4196105618       -3.0084923272
 H          1.9175237024       -0.0395727885       -2.1382754039
 H          1.6901924240       -1.3951678115       -2.8976805013
 O          0.0216037509       -3.6983548626       -0.4819033494
 H          0.0082794818       -2.7391729519       -0.3606069848
 H         -0.1047872984       -4.0698531798        0.3956298247
 O         -3.2719573958       -2.5025767654        2.3448964573
 H         -2.3624879821       -2.8416967103        2.3863252187
 H         -3.2665372656       -1.6925500216        2.8808347708
 O          1.8078624885       -3.0909182911       -2.5649527113
 H          2.7249974020       -3.0212474390       -2.2357480437
 H          1.3114816299       -3.4965548437       -1.8381355051
 O          1.4533637076        3.7163613491       -0.2681176610
 H          0.8683572066        3.2749651842        0.3827893581
 H          1.1229655820        4.6124795694       -0.3489356405
 O         -0.5194407452       -2.8157185331        2.3133117911
 H         -0.1364985341       -2.4041106433        3.1004603872
 H         -0.4081152643       -2.1386504632        1.6368876307
 O         -1.8868127832        4.3242886334        0.0686893501
 H         -1.5901434118        3.9243092392       -0.7673023706
 H         -2.7972608141        4.0171162880        0.1942514955
 O         -5.2276524468       -1.5617943114        0.6789132612
 H         -4.5485854321       -2.0476586825        1.1834048777
 H         -4.9512743873       -1.5383064768       -0.2470374841
 O         -4.8073455984       -0.9547500206       -2.0929097724
 H         -5.5329218886       -1.4243453481       -2.5031573816
 H         -4.0234002175       -1.0767693064       -2.6913701316
 O         -5.4328317476        0.8289599927        1.7447780728
 H         -6.3773396058        0.9701193155        1.7639168838
 H         -5.3236139253       -0.0702287698        1.3295951432
 O          4.5653468138       -0.1437625136       -2.6508873258
 H          4.6629800646        0.5591751675       -1.9895977706
 H          3.6976966860       -0.0255641898       -3.0597545206
 O          5.0276837237        1.8343268245       -0.6981747612
 H          4.6809159480        2.3885878422        0.0369185881
 H          5.9700642103        1.9961618996       -0.7300158345
 O         -4.1797809182        2.7850576529        0.3381561463
 H         -4.4692676190        2.5594876921       -0.5684014270
 H         -4.7423427396        2.2416951026        0.9217599451
 O         -2.7360143743       -1.1902705998       -3.6965641866
 H         -2.0610496551       -0.4959880417       -3.6076671567
 H         -2.2546511692       -2.0246231374       -3.5508582165
 O         -4.8354166679        1.8105047118       -2.1288318204
 H         -4.9441609252        0.8409160115       -2.0946521478
 H         -4.1618548390        1.9786491993       -2.7900218412
 O          0.7124123608       -0.7556473219        3.6461716187
 H          0.1399124619        0.0228912596        3.8124769070
 H          1.5377577973       -0.5859666261        4.0999481924
 O          3.7941515968        3.3336995597        1.1400265868
 H          3.3996406039        2.9635430203        1.9417113297
 H          3.0370255220        3.6143544900        0.5964823165
 O          1.9256378947        2.3971874879        3.0354205551
 H          1.5979804386        2.1709734324        3.9072815797
 H          1.1371971964        2.6156248193        2.5168532396
 O          4.1522280518       -2.4594870905       -1.3917740735
 H          4.9838098668       -2.9242222658       -1.3107069831
 H          4.3580587323       -1.6058872453       -1.8425203652
