  386

 H          0.4630927076        1.1941025332        0.8323452960
 C          0.5529035761        0.5095402430       -0.0251092074
 H          0.4633421182        1.0989800598       -0.9466436097
 C         -0.5779259334       -0.5149488607        0.0205351870
 H         -0.4518492549       -1.1270258239        0.9278134326
 H         -0.4840892691       -1.1748678651       -0.8448928484
 N         -1.8603253885        0.1647702476       -0.0623309409
 H         -2.6131021662       -0.5138473279       -0.0751527663
 H         -1.9956541840        0.7570092262        0.7508171939
 O          1.7808081026       -0.1833448058        0.0209869106
 H          2.5006908393        0.4507195085       -0.0567171279
 O          2.4606372911        2.3764758957       -2.8094956268
 H          3.2073401029        2.1140668694       -3.3775810922
 H          2.7320103879        2.1488350108       -1.8899409568
 O         -1.7586969698        0.9241315234       -2.5913660732
 H         -0.8434981812        0.7582069261       -2.9061395592
 H         -1.7403365705        0.7968817342       -1.6017841875
 O          4.7607915360       -0.9611396277       -2.3519839353
 H          4.4137523008       -1.0651061984       -1.4375783681
 H          4.0306437839       -1.0449106254       -2.9954554948
 O         -4.3766265249        1.6891764950       -1.8013961199
 H         -3.5634945450        2.2269185142       -1.8689804708
 H         -4.1259262444        0.7812342418       -1.5668471754
 O         -4.6728594873       -1.0670767922        1.9636690807
 H         -5.6506465548       -1.1319399323        1.9542530024
 H         -4.4707380015       -0.1581132816        2.2647371112
 O          3.4707230929        1.8583955389       -0.4392118495
 H          4.3401261005        1.7604849955       -0.9049043421
 H          3.4322982618        2.7897760138       -0.1603410963
 O         -1.6416982558        1.7391454110        3.3054764982
 H         -2.0796569624        2.0369930077        4.1296396766
 H         -1.7628509862        0.7718913015        3.2539004299
 O          1.8134692898       -1.5533852774       -2.3648388201
 H          0.9823283158       -2.0640813778       -2.4861415365
 H          1.7961108531       -1.1471273959       -1.4804274286
 O          0.6802302589        0.5870050480       -3.5446506052
 H          1.1211846285       -0.2585125873       -3.3295531672
 H          1.3005207034        1.3033174725       -3.2709937524
 O          2.2832169694        1.9447100715        2.2698273735
 H          2.2430144398        2.3956584415        1.4213763727
 H          2.7129741167        2.5773595849        2.8914740279
 O          0.0278985947        3.6594547396        1.4859356729
 H          0.3676627165        3.2838235777        2.3179967915
 H         -0.1075328392        4.6092920963        1.6815759576
 O          1.5045470522        1.3007261302        5.8668672001
 H          1.3009639733        2.0347119552        5.2553951756
 H          0.6969577698        0.7718361913        5.8869412128
 O          0.0096732091        3.1865823767       -1.5098140039
 H          0.1020791478        4.0623410499       -1.0928949548
 H          0.2812254618        3.3114687909       -2.4381469599
 O         -4.6331874588       -0.7416399479       -0.6125254519
 H         -5.4769744041       -0.2399793547       -0.6017986330
 H         -4.5171134153       -0.9720404770        0.3390877629
 O         -2.1580562700       -0.8337758564        3.3081680107
 H         -2.1698598395       -1.5434995253        2.6327456750
 H         -2.9758077197       -0.9648932898        3.8381738093
 O          1.6933325338       -0.5136300224        3.3790618280
 H          1.0619752641       -0.4102344555        4.1104046853
 H          1.7773207743        0.3480876583        2.9428860333
 O         -2.0575878555       -2.9192779111        1.6947013332
 H         -2.2437372696       -2.9840243996        0.7396954460
 H         -1.0908485489       -2.9755609114        1.7830241873
 O         -2.4824505173       -2.9000160643       -0.9797679615
 H         -2.7037698176       -3.8024087406       -1.2576845166
 H         -2.9257326149       -2.2822667724       -1.5865325607
 O         -3.3207815100       -1.1364181156       -2.9888734794
 H         -2.8745579097       -1.7211139776       -3.6407957435
 H         -2.7193184288       -0.3643746318       -2.8725626474
 O         -0.3516519638       -3.0500655458       -2.6500510009
 H         -0.1190032165       -3.9743185467       -2.8664286076
 H         -0.9146891895       -3.0986136222       -1.8520848116
 O          4.4579731942       -1.3263985608        0.2208798185
 H          5.2623912141       -1.7505088132        0.5735826231
 H          4.3104606028       -0.5746269933        0.8270029234
 O          4.5768815621        0.5959962435        2.0118615124
 H          4.6089548200        0.0947792394        2.8532409014
 H          3.7464505523        1.1095025839        2.0305959452
 O         -5.3337540895       -0.3247710529       -4.4841661698
 H         -4.6427551768       -0.5619389721       -3.8128378902
 H         -5.4436635131        0.6504456418       -4.4306003608
 O          0.4867577012       -2.7131447326        2.4899513538
 H          1.0646917829       -3.4823883159        2.3346663468
 H          1.0570966094       -1.9353933115        2.6555585607
 O          2.2798460220       -2.9282098188        0.2655861233
 H          2.1100633966       -1.9771925787        0.2778226904
 H          1.4140418870       -3.3760523212        0.1583881111
 O         -5.3981140794       -2.9023604235       -1.9052252531
 H         -4.9708543271       -2.1239769825       -1.4752053329
 H         -5.1753086224       -2.8732750176       -2.8496852879
 O          5.6436234455        1.4861923299       -1.8085365031
 H          6.1718237515        1.2923267427       -1.0141688618
 H          5.4046386149        0.6184905618       -2.1858921860
 O          6.7550580780        0.7981667941        0.5480892007
 H          5.9749363269        0.7507156613        1.1382753522
 H          7.4522907574        1.2805056749        1.0339867559
 O          4.2547448838       -0.7360094839        4.2570019841
 H          3.3339881652       -0.9063360828        3.9744957347
 H          4.6659801158       -1.6032964210        4.4145074007
 O          0.4656603164        3.0798711758        4.1179913076
 H          0.0130328227        3.8674849486        4.4360255184
 H         -0.2592296056        2.4723786353        3.8388758763
 O          6.6590281271       -2.5585435294        1.1910001335
 H          6.8101781837       -2.0661450340        2.0270961647
 H          7.3797054425       -2.3004918453        0.6001982198
 O         -4.6956804265       -3.8113410743        1.7924893612
 H         -4.4194602161       -2.8853001895        1.7181686320
 H         -4.8721286509       -3.9280426062        2.7469439130
 O          3.4483211293       -2.9329196848        2.6632323050
 H          4.1949746908       -3.5474381238        2.5829851196
 H          3.0296468476       -2.9091044485        1.7805333450
 O          0.9265282050       -2.0401004866       -5.0242462170
 H          0.3345183955       -1.8886168754       -5.7650403369
 H          1.2129200135       -2.9744824445       -5.0688238093
 O         -3.1000498104       -5.5196390957        0.3657217942
 H         -3.5879985908       -4.9018068528        0.9394807005
 H         -3.7525571645       -5.8406715359       -0.2655939170
 O          6.1294654038        3.4651348688        1.9968350561
 H          5.9091943350        4.4084418364        1.8126337092
 H          6.4376152031        3.1439074046        1.1377146000
 O         -0.3724932104       -0.7069018030        5.2413198595
 H         -1.0022844371       -0.7169211704        4.4808843867
 H         -0.2266831359       -1.6632125293        5.4011770142
 O         -2.4622014102        2.9541699393        0.9310383582
 H         -2.5146154726        3.1402149700       -0.0144015530
 H         -1.5237508945        3.1052285186        1.1774946980
 O         -4.1708877159       -1.1563977616        4.9824038602
 H         -5.0045847380       -0.6669897965        4.8319784408
 H         -3.7064668867       -0.7097487056        5.7224610268
 O         -2.3707256440       -4.4882859000        3.9270189745
 H         -1.6667847677       -4.1335698547        4.4927181118
 H         -2.4218982093       -3.8935556627        3.1534763012
 O          6.7430634303       -2.6304577570       -2.0488033789
 H          7.4279060374       -2.1384453479       -1.5740222960
 H          6.0069031422       -1.9824727626       -2.2095966257
 O          2.9787597141       -3.9746401744       -2.5772379859
 H          3.7113985683       -3.9734676862       -1.9305022788
 H          2.5894921738       -3.0769800745       -2.5161751856
 O         -5.6553667207        2.2463095692       -4.0141327447
 H         -6.5816790647        2.3435927045       -3.7571697626
 H         -5.1790209034        2.0781613720       -3.1615667197
 O         -6.8989632391        0.5738092277       -0.2812939943
 H         -7.4022166817       -0.2542799212       -0.4054511481
 H         -6.9766200463        0.8286463613        0.6588125683
 O          8.3144714992       -1.0242519234       -0.4332234808
 H          7.6090948216       -0.3962900985       -0.1279017687
 H          8.9521211759       -0.9828235580        0.3081279342
 O          4.2939111417        1.6198686403        5.5299423965
 H          4.3052737429        0.7227824817        5.1339136179
 H          3.4421764595        1.6762568451        5.9776645106
 O          2.3665374136        4.1773021299        0.3004342842
 H          1.4264616076        3.9721222780        0.4782338806
 H          2.3910580724        4.6135821479       -0.5739925085
 O          7.2228999634       -1.1849206350        3.4115876542
 H          6.9978316952       -0.2408132349        3.5634453899
 H          6.8372130794       -1.6844901383        4.1384707071
 O          6.7072552142        1.4307894043        3.8748918316
 H          6.0985146944        1.5760008382        4.6055452068
 H          6.5005785321        2.1018206165        3.2062301216
 O         -2.6332595017        2.8437112683        5.5272190762
 H         -3.6044913230        2.8335641686        5.4007558497
 H         -2.3289758404        3.7265334920        5.2799940942
 O          4.3346650142        1.4736995786       -4.5734998937
 H          5.2755642463        1.3002109394       -4.3892088148
 H          3.9406531291        0.5796194485       -4.6689790811
 O          3.3402225779       -0.9883828610       -4.6347193179
 H          2.4014597941       -1.2478072606       -4.7492812386
 H          3.8482780108       -1.7612567580       -4.9405145042
 O         -3.8479599505        4.7854429969        2.1917644477
 H         -3.3416810523        4.0355628987        1.7764235113
 H         -4.1267342205        5.3286979746        1.4482054247
 O         -2.4951922611        3.5715534666       -1.8012160112
 H         -1.5580956849        3.2426929887       -1.6644064293
 H         -2.3429979165        4.3398970221       -2.3971597533
 O         -2.1650864689        2.4870165905       -4.7311289831
 H         -2.7929038842        3.2069530157       -4.5795351627
 H         -2.1190595632        1.9809865763       -3.8917516273
 O          2.2320845535        5.0670512295       -2.2620644500
 H          3.0330118777        5.4591504843       -2.6125410203
 H          2.2399521620        4.1379041355       -2.5735191177
 O         -4.2638449149        1.5208550514        2.5097589111
 H         -3.3362435995        1.8012427281        2.4292431568
 H         -4.7398545585        1.9472148881        1.7625037583
 O          0.2193116819        3.7708554674       -4.1529906056
 H         -0.5193568214        3.2445068463       -4.5041296730
 H          1.0026888898        3.5629646793       -4.6961710846
 O         -7.2936769839       -1.4855411688        1.6980472559
 H         -7.4633422915       -1.7999486555        2.6102446279
 H         -7.2438156778       -2.3063621912        1.1599730881
 O         -7.7624496328        2.0275770276       -2.3242898106
 H         -7.2883881877        1.5851374364       -1.5851876213
 H         -8.6940100414        2.0230426175       -1.9947887235
 O         -1.6889681536        5.0453228518        3.9891754300
 H         -1.0895598700        5.6235373986        3.4993429859
 H         -2.4951618254        4.9980434876        3.4513578539
 O         -4.9485313697       -3.6943601434        4.4732376242
 H         -4.6476541679       -2.7918567569        4.7036349443
 H         -4.1452489474       -4.2351541941        4.5418043033
 O         -0.0807926203       -3.3444437484        4.9854882515
 H          0.0329150071       -3.1036297176        4.0318326296
 H          0.8040114164       -3.6639507268        5.2390100444
 O         -7.7358779071       -1.7818383210       -1.2264168540
 H         -6.9510101597       -2.3453921684       -1.3777538847
 H         -7.8923292636       -1.3358003435       -2.0812192181
 O          4.5330626514       -3.3222994618       -5.2831888363
 H          4.9380987415       -3.9195439053       -4.6196460604
 H          3.7384834268       -3.7771859125       -5.5794649946
 O          0.1290927274        1.1586011356       -6.0611456995
 H          0.3535077897        0.8531052105       -5.1477294501
 H         -0.6933768512        1.6514048253       -5.9733051453
 O          4.8982375127        4.2919645968       -1.1447331504
 H          4.8025654877        4.3517533532       -2.1025795836
 H          5.7664823273        3.8828087555       -0.9998654762
 O          7.4478094710        3.3556818987       -0.5627229225
 H          7.7425803971        2.6311214283       -1.1463623793
 H          8.1480464365        4.0081102504       -0.5572993298
 O          0.0037290342       -4.2775386690       -0.0905165142
 H         -0.4523270116       -4.7334961105        0.6292185575
 H          0.4975054603       -4.9759087591       -0.5619820347
 O         -5.1857198309        2.5066552291        4.7952288327
 H         -5.7395266867        3.2369108021        4.5010370168
 H         -4.8431348061        2.1054734690        3.9558099556
 O          8.5131184912        1.2771584178       -2.0847603503
 H          8.5289292978        0.4158144596       -1.6382454053
 H          7.9063295443        1.1770696665       -2.8417930814
 O          3.8817968569        3.4962123184        3.6457469357
 H          4.6641230444        3.4549970610        3.0689581967
 H          4.0761887868        2.9175940424        4.4115643453
 O          9.5054823634       -0.6193755559        1.9479461861
 H          8.8892123579       -1.0106191786        2.5868499277
 H          9.3358122445        0.3389165085        2.0166287194
 O          0.0649863556        5.7825367776       -0.6422454412
 H         -0.8197187982        6.1705087010       -0.7704111204
 H          0.6073367401        6.0163297077       -1.4021804415
 O         -2.5735413383        0.2267766227        6.6209209836
 H         -1.7215953939       -0.1013623081        6.2852686423
 H         -2.5918336006        1.1723570083        6.4256806930
 O          4.7406719033       -3.9178395988       -0.6057230357
 H          4.1993614978       -3.2068824569       -0.2118512365
 H          5.5814153533       -3.5177389518       -0.8777397920
 O          6.9789268603        0.7694684741       -4.3345043946
 H          7.4676110007        1.1072564835       -5.0847534132
 H          6.9208313507       -0.2110653711       -4.4682360024
 O         -5.4223213255        2.7312886386        0.4349083614
 H         -5.1707444384        2.2168580010       -0.3550482394
 H         -5.0497208383        3.6158191218        0.2841642922
 O         -7.1351545044        1.3653112606        2.3235006266
 H         -8.0744541968        1.2828749754        2.5645088326
 H         -6.8736966255        2.2921843420        2.4788565494
 O         -9.5986185635       -0.3976529727        0.8745668144
 H         -8.7242776431       -0.7719722955        1.1288681899
 H        -10.0759157945       -1.1346716566        0.4592042983
 O          8.8395938719        2.0039790266        1.7279985769
 H          8.6232733008        2.7661313043        2.2662355428
 H          9.4087797492        2.3012826084        0.9731737512
 O         -4.4185007906        5.0376408037       -0.6035798300
 H         -3.7494185083        4.5048282539       -1.0760597858
 H         -5.2179820941        5.0184909068       -1.1705658724
 O         -2.7812482817       -5.0604530524       -2.7574074507
 H         -2.9286574352       -4.5493764328       -3.5579976519
 H         -3.6351026885       -5.4290256489       -2.4795695755
 O          2.6146829063       -3.6815724382        5.0740021530
 H          2.6349855105       -2.8592761396        5.5920041473
 H          2.8373693994       -3.4041061873        4.1558015715
 O         -2.1096823890       -2.7859066910       -4.6619123600
 H         -1.7666957806       -2.2688164038       -5.4177373772
 H         -1.3508673247       -2.8859136785       -4.0418195785
 O        -10.0418010027        1.4644018491       -1.1642894863
 H         -9.8478399575        1.0152933085       -0.3259896709
 H        -10.4464406655        0.7692580517       -1.7136162150
 O         -1.6133289570        5.5738907848       -3.3040224409
 H         -2.2410692251        5.6132870351       -4.0286664856
 H         -0.8164929470        5.1246294385       -3.6409905691
 O          0.0778912374        6.2651022974        2.1043573363
 H          1.0196685467        6.2304353903        2.3748986375
 H          0.0972408583        6.4557175713        1.1536093422
 O         -1.0064332372       -5.9122294660        2.0165726154
 H         -1.4716946021       -5.5755018749        2.8047849608
 H         -1.7160373003       -6.0212122819        1.3585042690
 O         -7.8691367502       -0.4694954082       -3.5573062115
 H         -6.9705815059       -0.4831678923       -3.9474739585
 H         -7.9861487549        0.4441871129       -3.2325316451
 O         10.3582612786        2.4560007749       -0.3808056128
 H         10.9799062652        1.7270689349       -0.2097915230
 H          9.8282608288        2.1541587409       -1.1341978044
 O         11.5007514596        0.0015848977        0.1033966568
 H         11.3468347889       -0.6614684008       -0.5714998707
 H         11.0315947299       -0.2943366799        0.8968360873
 O          2.7106182171        5.7162567143        2.4280387666
 H          2.6246353390        5.1606417863        1.6181577837
 H          3.0168332084        5.1058600871        3.1136404916
 O         -1.2546732622       -1.1250598263       -6.6318919951
 H         -0.6222030334       -0.3832032392       -6.5881719572
 H         -2.1157265546       -0.6658256030       -6.6793004227
 O         -6.4962341511        0.1352443805        4.6260848528
 H         -6.1954742864        0.9426888171        5.0719635348
 H         -6.6562649125        0.4259938462        3.7011042102
 O         -3.3746247832        0.4897196612       -6.3100618266
 H         -3.0277085568        1.2500131447       -5.8166496900
 H         -4.1407014757        0.1615470444       -5.8186611489
 O          6.9132286904       -1.8343283872       -4.7440011898
 H          7.0249354457       -2.2775463880       -3.8891131680
 H          6.1450777977       -2.2500895318       -5.1556794469
 O         -7.0916411578       -3.9174444270        0.6849335395
 H         -6.1644125203       -4.0653364045        0.9588142561
 H         -7.2350975690       -4.2975201215       -0.1995453795
 O         -6.4315024990        4.0273355388        2.8565141368
 H         -6.9339097760        4.3499048055        2.0861566872
 H         -5.5064886313        4.2831844309        2.6814323882
 O          2.2310198926        2.9310363390       -5.7857688993
 H          2.9944704011        2.4072265376       -5.5057021574
 H          1.5941284758        2.2869197799       -6.1416238820
 O          3.5686999048       -5.9829331439        0.7495372668
 H          3.9157006591       -5.2260788907        0.2510604772
 H          2.8740813025       -5.6392996006        1.3401397616
 O          1.5717694429       -5.1910889231        2.4666504216
 H          1.7996031292       -5.3439123895        3.3862858007
 H          0.7068572342       -5.6110608639        2.2980487182
 O          1.8553884659       -4.5657756144       -4.9444251820
 H          2.3601119438       -4.4399379743       -4.1195267400
 H          1.0944505660       -5.0981034233       -4.6796950737
 O         -7.7509536908        4.1811704187        0.4633144811
 H         -7.1799470610        3.3988602529        0.3625626278
 H         -8.5793362838        3.8763589982        0.8616273799
 O         -0.1573521865       -5.6586684629       -3.3130094238
 H          0.3554720575       -6.0833316774       -2.6116676127
 H         -1.0943081932       -5.7186559476       -3.0666154795
 O         -9.6579266528        0.7375312872        3.2347500734
 H         -9.8509552304        0.2885254332        2.3791352797
 H         -9.5888906359        0.0486938070        3.8969811976
 O         -6.6755149027        4.6149341753       -1.9994273392
 H         -6.9925212302        3.7222372036       -2.2250104683
 H         -7.2342620130        4.8577332201       -1.2459380883
 O        -10.0723852325       -2.7992879891       -0.4034526057
 H        -10.0212105967       -3.2064542746        0.4745032591
 H         -9.1496129009       -2.5827148974       -0.6544401781
 O         -5.1775675727       -5.5320412422       -1.5391370776
 H         -6.0729908436       -5.8514818808       -1.6721044956
 H         -5.2621508315       -4.5540734028       -1.5503272015
 O         -7.4939720984       -2.4150938190        4.2013383436
 H         -6.7575407262       -3.0301477332        4.3320694080
 H         -7.2216170768       -1.5878101430        4.6258566918
 O         -4.8961447457       -3.0380312341       -4.6638637247
 H         -3.9511661177       -3.1206640193       -4.8586282126
 H         -5.1354761282       -2.1475038466       -4.9526826847
 O          2.3523745067       -1.3135678218        6.4157602196
 H          1.6053685187       -1.4136850679        7.0052305112
 H          2.3412406087       -0.3900847937        6.1249676171
 O         -4.1328419716        4.4672561416       -4.1748771758
 H         -4.6125645366        5.1104456222       -3.6491665068
 H         -4.7614252406        3.7301184000       -4.2957332101
 O         -9.3427959033       -3.6428423222        2.1638472855
 H         -8.5330287981       -3.9600535005        1.7265304394
 H         -9.0600796319       -3.3321765719        3.0283685549
 O        -10.6469242465       -0.8709498436       -2.4533166996
 H        -10.6318110794       -1.6037962922       -1.8231246144
 H         -9.9099842718       -0.9999121859       -3.0567743954
 O         -7.9627722834       -4.7922550760       -1.7128849120
 H         -8.8875035608       -4.6539110068       -1.4931703539
 H         -7.8147998808       -4.2945377608       -2.5430971570
 O          5.5029236034       -4.7257655861        2.4131278975
 H          5.0410074889       -5.4001811373        1.8903832201
 H          6.0102913637       -4.1737087632        1.7958482237
 O         -7.6306565420       -3.3635986052       -3.9829736428
 H         -6.7362726565       -3.4620393984       -4.3311636022
 H         -7.8473710374       -2.4265251220       -4.0225381038
 O          5.4801236990       -3.1560889974        4.7730603109
 H          4.7019244662       -3.5232620069        5.2130781877
 H          5.6632474279       -3.7628291080        4.0407953333
 O         -2.3710918428        6.8110326717       -0.1176458435
 H         -2.3073339020        6.7982807803        0.8393822388
 H         -3.1702916739        6.3177188660       -0.3635055714
 O          5.2407935031        5.8142951608        1.1498791290
 H          4.4120575792        6.0177461358        1.6087534927
 H          4.9961520071        5.4329636899        0.2884883141
 O          4.4374675969        4.3001129717       -3.9880869298
 H          4.7731988780        3.4022499710       -4.0890458845
 H          3.7239229730        4.3728503439       -4.6290184274
 O          1.6896881373       -5.9787016049       -1.3144171687
 H          2.3041412525       -6.2636905167       -0.6176099354
 H          2.1581981186       -5.2684224048       -1.8050991427
 O          5.7674079293       -4.8424728441       -3.4101607255
 H          5.2047666831       -5.3273566893       -2.8035329640
 H          6.2559212013       -4.1936094662       -2.8833348489
 O         -9.4543310728        3.3590473398        2.4166282246
 H         -8.9152282354        3.6915063686        3.1368349981
 H         -9.8233435054        2.5164007438        2.7099923560
