16

C -0.029883000 -0.824352000 1.174012000
C -0.029883000 -0.824352000 -1.174012000
C -0.029883000 0.698652000 -1.263420000
C -0.029883000 0.698652000 1.263420000
H 0.998446000 -1.215026000 1.209207000
H 0.998446000 -1.215026000 -1.209207000
H -1.047045000 1.089736000 -1.293556000
H -1.047045000 1.089736000 1.293556000
H -0.575848000 -1.233493000 2.023710000
H -0.575848000 -1.233493000 -2.023710000
H 0.536133000 1.071897000 -2.117711000
H 0.536133000 1.071897000 2.117711000
O -0.691174000 -1.255429000 0.000000000
N 0.609348000 1.259519000 0.000000000
H 1.607805000 1.028140000 0.000000000
H 0.549984000 2.280832000 0.000000000
