  132

 H         -0.5425054112       -1.1597996585        0.9180873602
 C         -0.6112510051       -0.5412956741        0.0100749183
 H         -0.5391308395       -1.1969144471       -0.8712436602
 C          0.5103658648        0.5037878336       -0.0094871840
 H          0.3911098457        1.1518924074        0.8600966288
 H          0.3944399221        1.1152669955       -0.9056411627
 O         -1.7891825170        0.2100258093       -0.0077307041
 H         -2.5646581752       -0.3620747643        0.0026734601
 N          1.8637421186       -0.1172780948        0.0059475211
 H          1.9871272142       -0.7237037742       -0.8163106220
 H          1.9839787968       -0.6890763208        0.8531041593
 H          2.5930828886        0.6072400318       -0.0077051377
 O          3.8592831094        1.6566892306       -0.0104278970
 H          4.6560450653        1.4947505099       -0.5384417530
 H          4.1463203867        2.0238649445        0.8428058128
 O          4.1058012013       -0.7093440067       -2.5222120540
 H          3.3719805662       -1.3172310167       -2.6872927196
 H          3.7305870858        0.1958666220       -2.6702318047
 O          1.4894749337       -1.7544655787        2.0626881388
 H          2.1761071769       -2.2478220641        2.5731630832
 H          0.9357315501       -1.2840048744        2.7144821977
 O         -0.1412484106       -0.3253476889        3.6896287367
 H         -0.7235718657        0.3766568157        3.3570937355
 H         -0.7145151387       -1.1064777600        3.7669578145
 O         -3.6512099181       -1.6303524199        0.5893362056
 H         -3.6878053602       -1.3176044221        1.5282733463
 H         -3.0307834894       -2.3817513319        0.5500044468
 O         -1.9869161185        1.3579546696        2.5091910271
 H         -1.8765380190        1.1999231198        1.5558510696
 H         -2.5230844692        2.1641188544        2.5964039818
 O          3.1925775938        1.7240678601       -2.8882488625
 H          2.9115995871        2.2475601228       -2.1183324588
 H          2.3959634598        1.6087335038       -3.4344540983
 O          4.6446685465       -1.5098230885       -0.0597542217
 H          5.5886037345       -1.3087117217        0.0674598580
 H          4.4345351785       -1.2037602107       -0.9735654624
 O          1.0314203584       -3.4686608170        0.0318653549
 H          1.8364128416       -3.9990910275        0.1211902671
 H          1.0646667254       -2.8791372298        0.8137537677
 O          1.7010829631       -1.8839275520       -2.0481047326
 H          1.4341452737       -2.5989520115       -1.4344557150
 H          0.9222326685       -1.6636374020       -2.5932238225
 O          4.2113716663       -0.3904083225        2.3530588693
 H          4.9071542885        0.2590071586        2.4818545984
 H          4.3221402465       -0.7366390932        1.4451975610
 O          2.0996740626        1.2181919588        2.9087404967
 H          1.4248562118        0.8087454022        3.4631519174
 H          2.7654011399        0.5216818532        2.7375800180
 O          0.9790057875        3.3081185519        1.4277233341
 H          1.3922202509        2.6581190153        2.0150104509
 H          1.5111070359        3.3323494414        0.6160197471
 O         -3.8562640296       -0.5133090029        2.9557850346
 H         -3.1185480380        0.1367337123        2.9399017643
 H         -4.6274375974        0.0020930044        2.6475104726
 O         -0.5357573310       -1.0773549609       -3.3750687407
 H         -1.2219322738       -1.7592581111       -3.3527689571
 H         -0.9998261887       -0.2548750377       -3.1088298293
 O         -1.7764793261        1.1759737537       -2.5664814207
 H         -2.6235595218        1.5097898846       -2.9326270608
 H         -1.9278754017        0.9963058188       -1.6189003952
 O         -4.5158460535       -0.3047450433       -1.6411171247
 H         -4.3618961810       -0.8945445348       -0.8845762406
 H         -4.1978220244        0.5684493492       -1.3430044594
 O         -0.5105834667        3.4842327818       -2.3661161988
 H         -0.8164549268        4.0663252152       -3.0619232754
 H         -0.8712575358        2.5865929170       -2.5751899779
 O         -1.8681875670       -2.4073501637        3.2590729167
 H         -1.9700424982       -3.3132615147        3.5507190941
 H         -2.7215140465       -1.9676226949        3.3757156213
 O         -1.7790260770       -3.4828530133       -0.1371667945
 H         -0.8252786497       -3.6338918481       -0.0699355862
 H         -1.9682056280       -3.2027770354       -1.0499181924
 O          4.4638051519        2.5866379989        2.4892436814
 H          4.6008739144        3.5027961838        2.7307345053
 H          3.6186149656        2.3113743062        2.8805873730
 O         -3.7234586759        1.9176219853       -0.3474580695
 H         -4.2404294080        2.6431572061       -0.7761430052
 H         -2.8974356350        2.3421961187       -0.0551189961
 O         -1.4479144096        3.3127994054        0.2269471500
 H         -1.1201033855        3.4983403974       -0.6677220012
 H         -0.6620062716        3.3532325775        0.8071547567
 O          6.0196691233        1.1562876936       -1.7313674295
 H          5.9504075549        1.8944482437       -2.3404159834
 H          5.6032343247        0.4055255400       -2.1801723763
 O         -5.4321539320        1.1294330449        1.5459410552
 H         -6.1579015110        0.7330552627        1.0320915548
 H         -4.7704939709        1.3843911703        0.8619120049
 O         -6.9517034241       -0.0437775463       -0.4032377795
 H         -7.0938909240       -0.9505575127       -0.0999890085
 H         -6.2177181013       -0.1103662735       -1.0445422258
 O          3.7374207900       -3.9827809708        0.4803226266
 H          4.0702906600       -3.0953493496        0.2223219559
 H          4.3617983212       -4.6243212339        0.1417254025
 O          7.0549691676       -0.3684782578        0.3368193215
 H          6.9101122032        0.3222554296       -0.3273656509
 H          7.9914043563       -0.5679438930        0.3385372606
 O         -2.7930149294       -2.3612067046       -2.4724500083
 H         -3.5367367002       -2.9913557695       -2.4713543336
 H         -3.2403120793       -1.5032885589       -2.3859010879
 O         -5.0408910491        3.9072838158       -1.4410756272
 H         -4.6592927771        4.5003352165       -0.7571448614
 H         -5.9424226604        3.6810548459       -1.1541596927
 O          3.5294795311       -3.0257629123        3.1140456118
 H          3.7180748650       -3.5376788169        2.3118476990
 H          4.0925547707       -2.2407566568        3.0926538195
 O         -4.0642902171        2.2603251696       -3.4129581484
 H         -4.4038532995        2.9834652208       -2.8576840524
 H         -4.8133993005        1.7005018722       -3.6223018320
 O         -6.1736657179       -2.6146292639        0.2793716537
 H         -5.2654251582       -2.3243719248        0.5079581164
 H         -6.2899943475       -3.4388108271        0.7585822930
 O         -5.2130379416       -3.5390197631       -2.1057232935
 H         -5.6277747931       -3.1906435724       -1.2885536490
 H         -5.8029756892       -3.3089682773       -2.8232323810
 O          1.9244348830        3.4963674944       -1.1843943388
 H          1.0711995764        3.5064633012       -1.6615080708
 H          2.3214214794        4.3586118965       -1.3106229611
 O         -4.2183875489       -4.6021668696        0.5494484590
 H         -3.2623894504       -4.4725057281        0.4905104760
 H         -4.4984740802       -4.8003575723       -0.3480768393
 O          0.9057751438        1.1823519108       -4.2682382165
 H          0.8308413889        1.3316532330       -5.2102841395
 H          0.5414836885        0.3033589906       -4.0960247124
 O         -4.0831765258        3.1231022576        2.8119685510
 H         -4.7420633610        2.4920239740        2.4693042389
 H         -4.2804548766        3.2601307126        3.7377737145
 O         -3.6831063492        4.8837663854        0.6442080835
 H         -3.9587660470        4.4671565333        1.4718035829
 H         -2.7870832817        4.5412752346        0.4909444605
 O         -7.2839605444        2.7280894205       -0.4389608673
 H         -7.7283426825        2.9402553214        0.3821320155
 H         -7.3473109117        1.7679717310       -0.5454197512
