  131

 H          0.4630927077        1.1941025328        0.8323452959
 C          0.5529035762        0.5095402431       -0.0251092077
 H          0.4633421183        1.0989800596       -0.9466436098
 C         -0.5779259334       -0.5149488605        0.0205351871
 H         -0.4518492548       -1.1270258237        0.9278134322
 H         -0.4840892690       -1.1748678657       -0.8448928486
 N         -1.8603253886        0.1647702475       -0.0623309407
 H         -2.6131021663       -0.5138473280       -0.0751527666
 H         -1.9956541838        0.7570092262        0.7508171932
 O          1.7808081027       -0.1833448059        0.0209869108
 H          2.5006908392        0.4507195084       -0.0567171280
 O          1.6940799455       -1.8802024179        2.1742999665
 H          2.5901462961       -2.2438571997        2.2149467184
 H          1.6919835377       -1.3249675067        1.3696276329
 O          4.1190564114        0.1883734465        2.7475545608
 H          4.1672543311       -0.7291141329        2.3844238997
 H          3.4615024846        0.1782443322        3.4450709408
 O         -2.0078518068        1.1592761493       -2.5737519576
 H         -1.9898275073        0.8118974920       -1.6473290085
 H         -2.9071513469        0.9856057831       -2.9220151839
 O         -1.1491578691        3.6068652202       -2.0135102176
 H         -1.4912792562        2.7630786914       -2.3848435015
 H         -0.1890579305        3.4883971974       -1.9424050365
 O          3.7450780459        1.5173001381        0.4362586199
 H          3.9101874390        1.1494427490        1.3271251711
 H          3.3069270305        2.3897201337        0.5760704062
 O          2.1840590106        3.6025773229        0.7975784145
 H          1.7853798390        3.5340098379       -0.0846702934
 H          1.5423826925        3.2601705520        1.4376945668
 O          0.6361013804        2.4586349331        2.8784644834
 H          0.7491699864        1.5353973877        3.2274721702
 H          0.8446402037        3.0422647924        3.6092661593
 O         -2.6329908748        3.6653639594        0.1082278373
 H         -2.9195221940        4.5741995476        0.1990633392
 H         -2.0244443876        3.6467346358       -0.6867322883
 O         -4.7767768908        1.9528169947       -0.1952578430
 H         -4.0055422280        2.5395157576       -0.2790991759
 H         -4.9169927537        1.8610291646        0.7732749411
 O          5.6954440117        0.7415490938       -1.1775542180
 H          5.4969916240        1.0661869126       -2.0792689839
 H          5.0122073936        1.1651070681       -0.6156109652
 O         -4.5971351959       -0.7006171992       -0.5885871919
 H         -4.0361569351       -1.0625492870       -1.2945726099
 H         -4.6113192777        0.2759308092       -0.6655916281
 O          4.7879474358       -1.7694790726       -0.9892671814
 H          5.1400009106       -0.8611451105       -1.1208779901
 H          3.9942706462       -1.8505757145       -1.5393328468
 O          2.3204738337       -1.6681252808       -2.1376648824
 H          1.5508450211       -2.1381528915       -2.4925334921
 H          2.0271613425       -1.2925263334       -1.2824408719
 O         -4.4688905544       -1.1401761462        2.0827331514
 H         -4.6819614637       -2.1111901353        2.1733254418
 H         -4.4768420369       -1.0017950606        1.1136639895
 O         -4.7757584405        1.5847682367        2.4662251670
 H         -3.8864210901        1.9119955639        2.6535741260
 H         -4.7155172342        0.6183963380        2.5323622801
 O         -2.0104274896        2.1189587137        2.2484810200
 H         -1.1011392181        2.3503863137        2.5080445554
 H         -2.2279388274        2.7164651757        1.5061086656
 O          0.2983941799       -3.9779073069       -0.3341410688
 H         -0.0751352860       -3.6299565463        0.4861865189
 H          1.2485343553       -4.1095966312       -0.1598754096
 O          2.1481339330        0.8256862861       -3.1770578887
 H          2.3686892147       -0.0423359177       -2.7837378446
 H          1.3063162157        0.6291834850       -3.6542099390
 O          1.5941221507        3.1148745689       -1.8822034686
 H          1.8157387394        2.2618777352       -2.3217464384
 H          2.1067486798        3.7826937531       -2.3401629266
 O         -0.1651132813       -2.8437574942       -2.6444211191
 H         -0.2156362112       -3.5395200470       -3.3016305716
 H         -0.0158621575       -3.2966994923       -1.7691404611
 O          4.3086097610       -2.2231902930        1.5887022352
 H          5.2321836935       -2.4478780329        1.9094773104
 H          4.4535682957       -1.9717860881        0.6461631589
 O          0.7334362108        0.0017839983        3.8416891441
 H          1.1361321367       -0.7015712539        3.2919223425
 H         -0.1968307425       -0.2461864681        3.9147408103
 O         -1.9969495214       -0.6212122499        3.0701595124
 H         -1.9714304964        0.3197468811        2.8419047165
 H         -2.9085273108       -0.8982317135        2.8459633398
 O         -2.6739003833       -3.9961042470        0.3406224655
 H         -2.3136623725       -4.8614928463        0.1386677087
 H         -2.1224117040       -3.6397093703        1.0580206163
 O         -2.8431598457       -2.3582180282       -1.8619340257
 H         -1.9544229886       -2.3994683145       -2.2416844411
 H         -2.8470159626       -2.9680230405       -1.1022896486
 O         -6.8680459180       -1.5200207215       -1.7667960546
 H         -6.0995263678       -1.2311032871       -1.2304125155
 H         -7.3241433909       -0.7016389407       -1.9852555760
 O         -0.1633846904       -0.1343679900       -3.9999807682
 H         -0.2516212852       -1.0323752980       -3.6673130378
 H         -0.8806683225        0.3816480523       -3.5677228338
 O          6.8182724807       -2.4873097900        2.0978855154
 H          7.0981832240       -2.8258450317        1.2169766213
 H          7.0295785810       -1.5389087431        2.0820207700
 O          6.7528392736        0.2680966213        1.6472840403
 H          6.0255543909        0.4486607949        2.2547647754
 H          6.4179395852        0.4662937798        0.7654616603
 O          2.9639399398       -4.2219083418        0.1870962444
 H          3.6114586417       -4.5414195703       -0.4418834271
 H          3.4438890998       -3.6317240554        0.7932585856
 O          4.7454195178        1.4848106295       -3.5838569148
 H          3.7836545291        1.3225281449       -3.5233823825
 H          5.0536629926        1.0095599675       -4.3555460674
 O         -0.8246108787       -3.0045721373        2.1726919678
 H          0.1113969427       -2.8374253490        2.3696768547
 H         -1.3033951538       -2.2725061090        2.5967760462
 O          7.2446538800       -2.9734700985       -0.5019077473
 H          7.7992979496       -2.2041196734       -0.7242925667
 H          6.3578234856       -2.7325353546       -0.8076086835
 O         -4.4610857414        0.5197260946       -3.3895202156
 H         -5.3088428151        0.8209634251       -3.0324037104
 H         -4.6041559017       -0.4047946854       -3.6800823765
 O          8.2719529067       -0.4431730610       -0.8504236210
 H          8.4666305619       -0.1545921418        0.0452758207
 H          7.4826225369        0.0448269295       -1.1233297180
 O         -6.7521938234        1.3813056654       -1.9973455989
 H         -7.1816416321        2.1767346892       -2.3106554701
 H         -6.1464813353        1.6552679203       -1.2836203220
 O         -4.9612764687       -2.1153253676       -3.6866797590
 H         -5.7568197769       -2.1018017244       -3.1259604745
 H         -4.2360010873       -2.4127303047       -3.1188573808
 O         -5.0700863701       -3.6462990450        1.8552355428
 H         -5.9272695568       -3.5393274157        1.3847183854
 H         -4.4214182942       -3.9289131533        1.1974207893
 O         -7.3354401353       -2.9608834476        0.5718390558
 H         -7.2772841166       -2.6558408653       -0.3473887578
 H         -7.5647956389       -2.1712697107        1.0799596252
 O         -7.2045002907       -0.4468004343        1.8422659155
 H         -6.3028566356       -0.7119117313        2.0826001479
 H         -7.2587659824        0.4955799447        2.0064150634
