  311

 H          0.4630927076        1.1941025327        0.8323452955
 C          0.5529035762        0.5095402431       -0.0251092078
 H          0.4633421182        1.0989800595       -0.9466436100
 C         -0.5779259332       -0.5149488604        0.0205351874
 H         -0.4518492549       -1.1270258238        0.9278134321
 H         -0.4840892691       -1.1748678657       -0.8448928489
 N         -1.8603253887        0.1647702476       -0.0623309405
 H         -2.6131021662       -0.5138473281       -0.0751527667
 H         -1.9956541841        0.7570092263        0.7508171935
 O          1.7808081026       -0.1833448060        0.0209869105
 H          2.5006908394        0.4507195083       -0.0567171282
 O         -1.6619340287        2.3453857188       -1.5428572927
 H         -1.7242831367        2.2911086742       -2.5063482616
 H         -1.6495012071        1.4183119490       -1.1861108693
 O          2.3021920565       -0.9974980332       -2.4832821143
 H          2.1781072532       -0.7708160919       -1.5456529998
 H          1.7260425251       -1.7738954000       -2.6353024485
 O          3.2182799244        1.7563286349       -1.0763528991
 H          3.8636378765        1.0689130725       -1.3301834487
 H          3.1320278925        2.3544367433       -1.8429335980
 O          4.8746004452       -0.3529608004       -1.1349281502
 H          5.6912228040        0.1604033515       -0.9922498345
 H          4.5628010804       -0.5171698040       -0.2254739709
 O         -5.7175104090        1.0906635575       -1.1652539001
 H         -5.7705365872        1.0603347148       -2.1379900517
 H         -5.0075404430        1.7295427874       -0.9286191656
 O         -2.1021236334       -3.3067746849       -2.7408662751
 H         -1.1526916454       -3.0734239759       -2.8216542244
 H         -2.3760325378       -2.9520832836       -1.8786796299
 O          2.2803464771        0.9119835639        2.7848750460
 H          1.4448899895        0.4084757316        2.7592521852
 H          2.1522826482        1.7269366023        2.2561717539
 O          0.2281429012        0.5639010198       -3.2984872278
 H          1.0309960484        0.0848149855       -3.0326271622
 H         -0.1864662941        0.0034793962       -3.9697501681
 O         -0.0853776767        2.7073707239        3.3192235176
 H          0.5400855264        3.0145086711        2.6364125558
 H         -0.8697764438        2.3565950437        2.8160987126
 O          0.0514568347        0.9590192147        5.3178441709
 H         -0.0012096749        1.6407937790        4.6078519942
 H          0.9618443663        1.0571638002        5.6430513659
 O         -2.7565382204        0.7702386717        4.7189392957
 H         -1.8979024767        0.8813499526        5.1395558701
 H         -2.9082050615       -0.2003335045        4.6368521581
 O         -1.2997844699        4.8512070847       -0.5078339243
 H         -1.4073846414        3.8986241386       -0.7002009423
 H         -1.0159311669        4.9426388448        0.4186472802
 O          3.3534979851        3.2040063232       -3.3516078240
 H          3.5246934289        2.3507249573       -3.8035614273
 H          2.4331925088        3.4314395927       -3.5594439925
 O         -3.8938276981        2.6596322000       -0.1739349261
 H         -4.0405183438        3.6193879565       -0.1137125849
 H         -3.0880414631        2.5451576037       -0.7242449614
 O         -3.6424901009       -1.8218385228        1.8083072226
 H         -4.3363373541       -2.5195359829        1.7422520468
 H         -4.0481250397       -0.9602118764        1.5817077665
 O          4.1668257157       -0.2968907187        1.4329219130
 H          3.3556252458        0.0083176847        1.8903658815
 H          4.3502042260       -1.2129140176        1.7364194343
 O         -3.2216158575       -1.8324083547        4.3929269898
 H         -2.5214168279       -2.4847505009        4.4906426374
 H         -3.3785587010       -1.8084202741        3.4122918503
 O          2.0696195841       -2.6187147811        1.0867085103
 H          2.6433882722       -3.0929808760        0.4464468117
 H          1.9305250658       -1.7199259432        0.7405306607
 O         -2.2660056370       -3.1853170845       -0.0357898408
 H         -2.9218291699       -3.9019582108       -0.1775013558
 H         -2.6827051318       -2.5917063033        0.6208385300
 O         -1.0024676133       -3.2499351266        3.2597982579
 H         -0.6992547268       -3.6555933166        2.4230027481
 H         -0.7152944292       -2.3132606507        3.2075051972
 O          0.2595313793       -0.8525778776        3.2386617314
 H          1.0879853237       -1.3383493918        3.4585522759
 H          0.0268836473       -0.3474816574        4.0342646588
 O          1.8059094153        3.0902421715        1.3823981345
 H          2.1868726818        3.9172584905        1.7547150686
 H          1.6040987851        3.3096458222        0.4501708509
 O         -2.2894667547        1.8832895337        2.2634039185
 H         -2.7734760328        2.7320115028        2.1494345484
 H         -2.6192891357        1.4595117149        3.0762374215
 O         -4.7242227060        0.5874444881        1.4286248034
 H         -4.9740399128        0.8933459018        2.3252124637
 H         -4.3085606423        1.3355199132        0.9671516292
 O          4.8238294590        3.5999324724        3.1284275421
 H          4.9254339855        2.6554057125        3.3562045602
 H          5.7493677897        3.9148237972        3.0521575383
 O         -5.3723545467        1.1915909167        3.9493456663
 H         -4.5274323035        1.2065588519        4.4178063528
 H         -5.7617792790        0.3087397543        4.1482582399
 O          5.4590265531        0.9761757545        3.3447943766
 H          5.2091742702        0.3785120303        4.0789571526
 H          5.0183228147        0.5860531067        2.5527818820
 O         -6.7724604229       -0.8642772798        0.5453375921
 H         -5.9701464776       -0.3242187525        0.6863740424
 H         -7.1502732865       -0.6177570679       -0.3231389692
 O          6.6325861605        1.5101200990       -0.2694066730
 H          5.9372332410        2.1244183372        0.0698583288
 H          7.0515021029        1.9858836780       -1.0067197658
 O         -6.1602348824       -1.2996246401        4.3233103572
 H         -5.3255760617       -1.7499030614        4.4933120784
 H         -6.6543659838       -1.8527624733        3.6772774117
 O         -7.3686895105       -2.7074102421        2.3689846933
 H         -7.1410748386       -2.1039223137        1.6347759977
 H         -6.7365848727       -3.4374034164        2.2624062529
 O          4.7444866844        3.1663937010        0.4991281551
 H          4.6557775267        3.3694964673        1.4546887972
 H          3.9417001977        2.6966554266        0.1940139905
 O          1.3040560925        4.1495037256       -1.0312397874
 H          1.1376137525        3.7424022011       -1.9113029929
 H          0.4869094706        4.6360301369       -0.8355674367
 O          0.5405548324       -2.9584259505       -2.8311814171
 H          0.7972511421       -3.0822194754       -3.7722152463
 H          0.7641634665       -3.7903894273       -2.3590228452
 O          4.3784811887       -0.7437456244        5.0982222238
 H          3.8296130206       -0.0676634698        5.5229273678
 H          3.7519479835       -1.2858330092        4.5763019806
 O          3.4242873424       -4.0693119981       -0.6586227173
 H          3.9992918284       -4.5594833344       -0.0324618366
 H          3.9759773486       -3.5850795712       -1.3097954114
 O          3.7466407498        0.6635842811       -4.0616113302
 H          4.6978736136        0.5832235632       -3.8379528541
 H          3.2610946879        0.1445735759       -3.3936366035
 O         -5.4610577952       -3.1449780721       -2.2262550689
 H         -6.4227101659       -3.1123428374       -1.9957773930
 H         -5.0254905106       -2.3973892156       -1.7443823235
 O         -3.4615553368        4.2835915858        2.3179491737
 H         -2.9689268980        4.5865702256        3.0978422134
 H         -4.3950589639        4.1051352320        2.5823202757
 O         -5.9612279612        3.6132702560        2.8009148766
 H         -6.4129385522        3.3531254070        1.9814697805
 H         -5.9138009751        2.8092400289        3.3405907737
 O          4.6134600656       -2.6616134341       -2.5679045741
 H          5.5603715933       -2.9141510795       -2.6964983881
 H          4.6355266591       -1.7938893389       -2.1145592418
 O          7.2186038396       -1.4376030194        0.9053922242
 H          8.0399144494       -1.9262669005        1.0952902643
 H          7.3090478597       -0.5920472795        1.3770471796
 O          2.5446212820       -2.1523363857        3.6880625502
 H          2.1452823831       -2.8854715826        4.2025668170
 H          2.6177279054       -2.4762551429        2.7691457305
 O          7.7546801126        1.0923104659        2.0705319442
 H          6.9611086997        1.1048880182        2.6546106332
 H          7.4088544608        1.3366490073        1.1779558648
 O         -8.1912048997        0.5457346917        2.2663139528
 H         -7.6763607448       -0.0872137220        1.7055059650
 H         -8.0134727478        0.3098657302        3.1776400067
 O          2.7413803772        1.4631361985        5.3452222282
 H          2.6336838012        1.2951969916        4.3768656706
 H          3.1403751215        2.3305060758        5.4190332230
 O         -3.9544015556        5.3965260591       -0.0917120561
 H         -3.0368820817        5.4286832408       -0.4160032354
 H         -3.8641993145        5.2818430762        0.8703468585
 O         -4.2410542259       -4.9047804842       -0.6777945700
 H         -3.8328386711       -5.6302083954       -1.1553326607
 H         -4.7189603462       -4.3506722006       -1.3406150798
 O         -7.2535107159        2.4741094948        0.5958823697
 H         -7.6542384596        1.8860506849        1.2637121296
 H         -6.7664884078        1.8793953255       -0.0151293458
 O          5.3426634364        4.3277845618       -1.8512087963
 H          4.6455999355        4.0665808530       -2.4789959634
 H          5.0818458476        3.9313733367       -0.9935387401
 O         -0.4958245722       -1.1458722850       -5.3894151091
 H          0.1189970944       -1.8807950636       -5.5191012622
 H         -1.3886011530       -1.5188098067       -5.4313860349
 O         -6.1640154049        4.2659899555       -1.3596262370
 H         -6.5602462315        3.8390596295       -0.5885426067
 H         -5.5584332849        4.9312998838       -1.0001135543
 O         -4.1779548174       -1.1165462819       -1.1697743943
 H         -3.6175533315       -0.8050861950       -1.9002446046
 H         -4.8156632197       -0.3879000180       -1.0344573494
 O         -3.0065910947       -0.0095312024       -3.3469088286
 H         -2.4691418670        0.7279282672       -3.6929567110
 H         -2.9241833844       -0.7424697461       -3.9912831101
 O         -0.0478686404       -4.1589266346        0.9074848167
 H          0.6840753756       -3.4947028183        0.9297575497
 H         -0.8390274778       -3.7359659413        0.4717030504
 O          0.6575229083        3.2332894240       -3.4442373590
 H          0.4019684824        2.2876975228       -3.4002402382
 H         -0.1690039131        3.7405122731       -3.5570148329
 O         -4.1688300237        3.4069792712       -3.1535671987
 H         -4.5710965859        2.6522797085       -3.5930737699
 H         -4.8381761745        3.7574743089       -2.5465174960
 O          3.8131667740       -1.8750422711       -5.0596267603
 H          3.9761067800       -2.1884701316       -4.1451730768
 H          3.6932121094       -0.9123103774       -4.9799037104
 O          1.4711750720       -3.1597624819       -5.3211105811
 H          2.2798454184       -2.6035752279       -5.3683543684
 H          1.8270910826       -4.0409314635       -5.1276580487
 O          5.1201104977       -2.6380260095        2.0661303265
 H          5.4897206851       -2.6073898950        2.9791874386
 H          5.8773581717       -2.3886186781        1.4967678506
 O         -1.6611927984        4.7582791764       -3.3199369661
 H         -1.4941041478        5.1317941126       -2.4484696311
 H         -2.5377976803        4.3493091909       -3.2578953916
 O         -8.1997290213       -0.1050442605       -1.6228157148
 H         -8.9835154246       -0.0396361244       -1.0394009197
 H         -8.0903156183        0.7584556504       -2.0494842278
 O          4.6667980334       -5.1721588467        1.4102407492
 H          4.8219763882       -4.2495745910        1.7186056599
 H          3.8622452037       -5.4452843717        1.8769362727
 O          3.3137123611        5.8540032421       -0.3244857678
 H          4.0843565345        5.6880235756       -0.8757151567
 H          2.6011993097        5.2821047991       -0.6702634278
 O         -0.1253108944        5.2714721448        1.9166426601
 H         -0.6296687981        5.4993222307        2.7011463904
 H          0.7870585178        5.5433768997        2.0707363077
 O         -5.4563593722        0.8230814188       -3.8396009985
 H         -4.5134280798        0.5717875855       -3.6614481074
 H         -5.8284827727       -0.0114280971       -4.1667633335
 O          7.3736281757        2.6907998256       -2.6402063336
 H          6.6725055764        3.3621723622       -2.5098147887
 H          6.9779504520        1.9803679863       -3.1828005844
 O         -5.7785433179       -1.8578736787       -4.5059817526
 H         -6.5853831489       -2.2045092740       -4.8847797614
 H         -5.6412835391       -2.3715193705       -3.6654174506
 O          6.3752967948        0.3842568347       -3.6005591653
 H          6.7482015481       -0.0777428675       -2.8245873937
 H          6.5292827693       -0.2510552395       -4.3366545649
 O          7.7859881379       -0.8421521190       -1.6373074285
 H          7.5120305362       -1.0498453063       -0.7172454368
 H          8.4999694208       -0.1888850615       -1.5864495741
 O          1.1049572016       -5.1399053515       -1.3807483406
 H          2.0043451579       -4.8702884724       -1.1024109327
 H          0.5629444006       -4.9806364947       -0.5869022187
 O         -7.7029250827        2.3883888662       -2.9099496450
 H         -7.2373909575        3.1287622173       -2.4958060399
 H         -7.0892066890        2.0054917257       -3.5471397476
 O        -10.1025939686        0.1789244512        0.2850941592
 H        -10.2703788572        1.0739072722       -0.0636678212
 H         -9.6304009349        0.3225879407        1.1205253087
 O         -1.6484365576        4.6106535522        4.3471699987
 H         -1.9833527440        4.2640332022        5.1735748984
 H         -1.0008333775        3.9454270407        4.0138126949
 O          9.5329192771        1.3000547210       -1.8030965997
 H         10.1471902063        1.2057714663       -2.5308826560
 H          8.8330185962        1.9108043336       -2.1071191190
 O          0.9775438720       -3.9140434090        4.9224219612
 H          0.7574639222       -3.4240561384        5.7207911080
 H          0.1849901576       -3.7850791250        4.3521534408
 O         -0.5140993552       -1.7408621470        6.0795963842
 H         -1.4506234260       -1.7925319976        6.2769669764
 H         -0.2909429207       -0.8029103135        6.0389644601
 O          6.4368068763       -2.4449368356        4.3468852513
 H          7.2422759334       -1.8978836753        4.2228690647
 H          5.8495187123       -1.9326625528        4.9173578673
 O          2.1921776450       -5.2718932175        2.6719663278
 H          1.9056701146       -5.0694083286        3.5691152512
 H          1.4320121205       -5.1257593955        2.1023867580
 O         -5.1166290264       -4.0216864074        1.7547112449
 H         -4.9990431986       -4.4303065485        0.8835538230
 H         -4.4899537071       -4.5027420289        2.3444069976
 O         -3.0496976491       -2.1395730224       -4.9621074342
 H         -2.8253738372       -2.7282731208       -4.2116730395
 H         -4.0182999135       -2.1257843334       -5.0203256167
 O         -3.1250771383       -5.1671823923        3.0491340359
 H         -2.4547522501       -4.4977043376        3.2328477456
 H         -2.7522627517       -5.7313392242        2.3460789287
 O          7.4233184919        3.9290232070        2.5599057147
 H          7.7812217821        3.0330465331        2.5974276393
 H          7.5159104425        4.2017546507        1.6345966168
 O          6.8227361557       -4.4006198768       -0.3512043103
 H          6.1453654007       -5.0322726597       -0.0926943393
 H          7.3029270421       -4.2109802349        0.4678416867
 O         -8.0331259876       -2.8155648727       -1.8795090295
 H         -8.5453213144       -2.9995510126       -1.0696057807
 H         -8.1227307304       -1.8573352049       -2.0017201270
 O         -1.8583808076        2.1213191223       -4.4306621641
 H         -2.3815596136        2.8664688456       -4.7272658129
 H         -1.1788476731        1.9433679245       -5.1182653028
 O         -1.8054682455       -5.8598940892       -1.8187588145
 H         -1.9627762885       -4.9808268274       -2.2227716379
 H         -0.8805613697       -6.0603330983       -1.9787732568
 O         10.1988116712        0.5322347432        0.8066541175
 H          9.4993724412        0.9105317805        1.3560388046
 H         10.0465087159        0.8660699297       -0.0887316007
 O          2.7896409017        5.3788843024        2.2690862136
 H          3.5696062578        5.0293727582        2.7198135535
 H          3.0871464149        5.7017504889        1.3917226020
 O          6.5649813600       -1.7242024116       -5.1798579806
 H          6.8656344527       -2.4186882706       -4.5813680337
 H          5.6243501418       -1.9029407272       -5.3596671862
 O          0.0429568232        1.4225517159       -6.1740730749
 H         -0.1079046893        0.4642798152       -6.0892825068
 H          0.8806018004        1.6064283727       -5.7424927617
 O          7.7217347128        4.2853608015       -0.1788081234
 H          8.4803740446        4.2917283774       -0.7622369835
 H          6.9715676756        4.6087410066       -0.6897873197
 O          7.1802681307       -3.2130063681       -2.7731822821
 H          7.5475074957       -2.3746393086       -2.4365952897
 H          7.1915684121       -3.8097624577       -2.0057376411
 O         -1.7931650780       -6.3290962879        0.9571996276
 H         -1.0080340191       -5.7827298581        1.0688992535
 H         -1.9886771658       -6.2960681835        0.0079884080
 O         -9.4789356770       -2.7340435074        0.4294233502
 H         -8.9500718835       -2.8062802325        1.2366968319
 H         -9.8553316049       -1.8463556879        0.4136057028
 O          2.8424606203       -4.9367889183       -3.7772328408
 H          3.4697576877       -4.3308347724       -3.3685146115
 H          2.3596582165       -5.3671429446       -3.0666796198
 O         -9.6586559241        2.6377371192       -0.7891877907
 H         -8.8509577784        2.7654017566       -0.2616199719
 H         -9.3714056091        2.6572966795       -1.7073144719
 O          9.7749807608       -2.0234230860        1.3805096739
 H         10.0692974300       -1.1172507078        1.1222176449
 H         10.4075717787       -2.6481983965        1.0323488062
 O          8.6415242081       -1.0545954577        3.7302575576
 H          8.5019572546       -0.1866678175        3.3333947775
 H          9.1582625383       -1.5621202611        3.0875251574
 O          7.4543779626       -4.3018129326        2.3469585737
 H          7.3591764496       -3.7607804278        3.1395542440
 H          6.7454724168       -4.9519250252        2.3869898261
