  191

 H          0.4630927076        1.1941025328        0.8323452958
 C          0.5529035761        0.5095402430       -0.0251092077
 H          0.4633421182        1.0989800596       -0.9466436098
 C         -0.5779259333       -0.5149488604        0.0205351876
 H         -0.4518492549       -1.1270258237        0.9278134321
 H         -0.4840892691       -1.1748678656       -0.8448928486
 N         -1.8603253885        0.1647702475       -0.0623309410
 H         -2.6131021663       -0.5138473280       -0.0751527666
 H         -1.9956541841        0.7570092262        0.7508171932
 O          1.7808081027       -0.1833448059        0.0209869107
 H          2.5006908392        0.4507195084       -0.0567171281
 O         -2.1847799211       -0.9123426739       -3.4753250217
 H         -2.1907594886       -1.6946146269       -2.8758745649
 H         -2.2150725823       -0.1112965343       -2.9231382448
 O          2.3398791845       -0.6112263709       -2.7173217715
 H          2.0405536792       -0.5948817709       -1.7979161527
 H          1.5550127830       -0.4555134322       -3.2864481523
 O          3.9672072861        1.1644892093       -0.5620899517
 H          4.2895804981        1.3936922401        0.3285270959
 H          4.3012619668        0.2444140981       -0.7572191457
 O          4.6688646681       -1.2626594391       -0.9643428852
 H          5.1158780018       -1.3360781078       -1.8336719194
 H          3.8781636379       -1.8405008044       -1.0014343302
 O         -4.6695574901        1.5104242842        0.3461242341
 H         -4.4420232560        0.7187050132       -0.1613841969
 H         -4.3130879254        2.2764575642       -0.1551831678
 O         -0.3907928982       -4.1471765230        0.7574617405
 H         -0.0039971082       -4.2993699189       -0.1099074286
 H          0.3304440073       -3.9224275289        1.3766513786
 O         -2.5302776646       -2.6363565780        0.6664009897
 H         -1.7591841997       -3.2292949514        0.8275351809
 H         -3.3274503458       -3.1635186716        0.9082826803
 O          2.4656762851       -2.7539122932       -0.5672939794
 H          2.0268044680       -2.0748668053       -0.0415574364
 H          2.8400987716       -3.4164459654        0.0699938493
 O          0.2519298387       -0.3049662208       -4.3136349136
 H         -0.6566112810       -0.5776381599       -4.0478010127
 H          0.1356577147        0.6010651951       -4.6610487647
 O          0.4650680928       -3.7643400142       -2.0427118800
 H          1.2433381911       -3.4166557767       -1.5638765936
 H          0.6537297046       -3.5900518148       -2.9804085998
 O          2.0052266544       -0.7192451391        2.7269032700
 H          1.9210298636       -0.4212045595        1.8073563310
 H          2.9297980517       -0.5085861082        2.9816173859
 O         -0.2926098650       -0.0862860026        4.1144165120
 H          0.5477600764       -0.3625589109        3.7080364123
 H         -0.9982679469       -0.3754682598        3.5061817055
 O         -2.4628979165       -1.0000384874        2.7693537845
 H         -3.3360922866       -0.5676881423        2.9086902816
 H         -2.4887975241       -1.4659482616        1.9077239317
 O          2.7239808172        2.7041371234       -2.4203786574
 H          3.0934330215        2.0430511861       -1.8075001945
 H          3.1411616286        2.5250216427       -3.2686695041
 O         -2.1020158140        1.5666452668       -2.1927060924
 H         -1.2779985701        2.0871352618       -2.2464810532
 H         -2.0231689135        1.0352002398       -1.3163640676
 O          0.0660915414        3.1290181538       -2.1335080205
 H          0.0307231730        3.5542968378       -1.2577615198
 H          1.0113856591        2.9869777922       -2.3217158630
 O          0.1053171534        4.1181418959        0.4633048801
 H          0.2832585289        3.6207097584        1.2708422753
 H         -0.8125347087        4.4436764134        0.5798882212
 O         -4.9037250150       -0.2111348915        3.4122210892
 H         -5.3582429950       -0.6876495390        2.6945981971
 H         -5.2161469988        0.7172253298        3.3122959899
 O         -2.0609908087        2.0015484122        2.0475923363
 H         -2.5062201138        1.8227692396        2.8978368419
 H         -1.1310152065        2.1647817911        2.2924781759
 O          2.8677683849        2.1695493662        1.7279121401
 H          3.4291191042        2.3552566271        2.5061066767
 H          2.9090068498        2.9559074015        1.1527287514
 O          1.4396189910       -3.3551721357        2.6015955693
 H          0.8186137058       -3.4737111326        3.3435102251
 H          1.7000567037       -2.4125655505        2.6624177325
 O          2.8404056269        4.2385180286       -0.0858259548
 H          1.9317448633        4.5155866648        0.1045305669
 H          2.8224075145        3.8885597185       -0.9904041863
 O         -4.3974840458       -0.7839691531       -1.1426378510
 H         -4.6163040489       -0.4175984006       -2.0169280642
 H         -4.5444830906       -1.7469762197       -1.2406023398
 O          4.6222027894       -0.2738463587        3.0512278751
 H          5.0023002182        0.3945784603        2.4549419110
 H          4.8902081097       -1.1227700827        2.6471225796
 O          5.8934789097        1.4681373478        1.3756954227
 H          6.3629645423        0.9982344651        0.6557192359
 H          5.8858925839        2.4119283197        1.1084349805
 O         -5.8859036682       -1.4165204239        1.1674755853
 H         -6.7282419930       -1.2909662222        0.6557991893
 H         -5.2149402059       -1.1074471122        0.5419486948
 O         -2.1426520993       -3.0579721781       -1.9352445490
 H         -1.2413063426       -3.4280096922       -1.9911566152
 H         -2.2646351187       -2.8103747092       -0.9923064691
 O         -7.2155904605        1.7224698285       -0.5475352055
 H         -7.7410749123        2.1030363615        0.1987639036
 H         -6.3189828586        1.6206725515       -0.1659760679
 O         -2.5305408952        4.3775411218        0.9578951975
 H         -3.0708148925        4.3299218269        0.1583059410
 H         -2.4500964665        3.4494331384        1.2757773397
 O          7.2479958564        0.3280184458       -0.6738350627
 H          6.9843541633        0.9406269200       -1.3837321139
 H          7.2007852263       -0.5824011269       -1.0149356470
 O          5.9397529933        2.2539774771       -2.0963428332
 H          5.2058691737        1.9739080245       -1.5156759576
 H          5.6430480206        1.9818324990       -2.9765257956
 O          4.3788316721        0.8430052745       -3.8749803991
 H          3.6256122948        0.3607952436       -3.4899358673
 H          5.0332725811        0.1534879586       -4.0363103282
 O          5.6301142292        3.8903189507        0.2860066944
 H          5.9332173553        3.7231416411       -0.6149792861
 H          4.7181240451        4.2061801897        0.2180933625
 O         -4.7641531265       -0.1822893030       -3.8295002193
 H         -4.4872145352        0.6520596362       -4.2510746259
 H         -3.9670508572       -0.7349519888       -3.9214682446
 O         -5.9475566899        2.5227911566       -2.7821073090
 H         -5.9659741288        1.6715819414       -3.2284463407
 H         -6.5804465520        2.4228452823       -2.0434064174
 O         -3.8339800611        3.4084856059       -1.3043630591
 H         -3.1413605932        2.8237619609       -1.6788068461
 H         -4.6169225903        3.3023546777       -1.8752138080
 O         -6.8327639995       -1.8709118349       -2.7251496830
 H         -6.2770909659       -1.3052386729       -3.2758534405
 H         -6.2723087998       -2.5979571946       -2.4247951113
 O          0.4681188376        2.3486206814        2.8584310068
 H          0.3560823150        1.6880732408        3.5581003292
 H          1.3873330032        2.2375277291        2.5246078292
 O         -4.7465583068       -3.8355848193        1.4498431444
 H         -4.4188753853       -3.9161365214        2.3609783470
 H         -5.3244125099       -3.0431075716        1.4384861702
 O          5.3651273588       -2.2962403523        1.4536027313
 H          6.3343035769       -2.3948106612        1.4994389068
 H          5.1966597365       -1.9073499072        0.5717230517
 O          4.4427830236        2.4266366557        3.9075470077
 H          5.3196214552        2.6919547925        3.6215402693
 H          4.4867054940        1.4841717917        4.1112450230
 O         -4.8173897291       -3.4518080733       -1.4626585951
 H         -3.9287680534       -3.6424157685       -1.8022253886
 H         -4.8997590163       -3.8934906146       -0.6090259587
 O         -3.4567675232       -3.2276448451        3.8732093940
 H         -3.0477356911       -2.4079636608        3.5125254813
 H         -4.1165803498       -2.9277066946        4.4992170297
 O          3.5931951322       -4.3116490256        1.1997570526
 H          4.3013883024       -3.6872457290        1.4575730584
 H          2.9045913030       -4.2319812080        1.8800866472
 O          3.4744075905       -2.9815098443       -3.4030277823
 H          2.8563079404       -3.3563899828       -4.0359653739
 H          3.0500719837       -2.1463903639       -3.1110037902
 O         -2.7494714974        1.5060584638        4.5969909382
 H         -1.9516950715        1.0084412965        4.8119611847
 H         -3.4933401808        0.8975376878        4.6522332157
 O         -5.6412041013        2.2515266722        2.7708484155
 H         -5.2791019874        2.0710092992        1.8862956910
 H         -5.1188447384        3.0057993435        3.1140324189
 O          0.8666068435       -2.9361686445       -4.6360303229
 H          0.0673630103       -3.2586663066       -5.0530192587
 H          0.7865656462       -1.9632841035       -4.6417303717
 O         -7.8969517368       -0.8603212380       -0.4125040082
 H         -7.7469905622        0.1036370050       -0.5539568127
 H         -7.6871646598       -1.2802329766       -1.2671316820
 O          8.0466428735       -2.2844780413        1.4351182704
 H          8.5258206746       -2.7767592455        2.0973637800
 H          8.2985480128       -1.3346544698        1.5546669560
 O          5.7873930762       -1.5288548501       -3.4220716650
 H          6.5837094631       -1.9737521210       -3.1125697370
 H          5.1335840589       -2.2153226914       -3.6425302642
 O          5.1305573569       -4.1068556629       -1.3937080127
 H          4.6644410334       -4.4786295958       -0.6389828004
 H          4.4611649359       -3.8789948392       -2.0569605652
 O         -0.5204824532       -3.0540678776        4.4665795895
 H         -1.4261241945       -3.3499319819        4.3162412316
 H         -0.5495606108       -2.0999885105        4.6155860858
 O          7.3021616024       -2.4085253841       -1.2669135499
 H          7.7682288978       -2.5277119353       -0.4297867409
 H          6.5785557188       -3.0639017804       -1.2559083436
 O         -3.4776433004        2.1600896711       -4.4505634749
 H         -3.0022653433        1.9523695513       -3.6234986375
 H         -4.1138622407        2.8468848050       -4.2352411404
 O         -0.5278900522        2.2279044174       -4.8647594818
 H         -0.3633851787        2.7809091363       -4.0921210122
 H         -1.4813412049        2.2331431507       -5.0148103730
 O         -8.2337898572        2.3828271401        1.7800700360
 H         -7.4051268183        2.4740677874        2.2801719802
 H         -8.5944218103        1.5154122360        2.0343147443
 O         -8.7374425869       -0.3056201431        2.1953228245
 H         -7.9556277850       -0.7008305763        2.5869715071
 H         -8.7545720898       -0.5943746396        1.2717690670
 O         -3.8561349713        4.1257902556        3.4656995221
 H         -3.2258569187        3.6184869824        3.9859647350
 H         -3.3956281228        4.4445144457        2.6736412375
 O          8.6000939330        0.2951523496        1.6777597852
 H          8.4529654390        0.4614924431        0.7318123390
 H          7.8806139256        0.7515210536        2.1272140920
