  147

 H         -0.5425054111       -1.1597996584        0.9180873604
 C         -0.6112510052       -0.5412956740        0.0100749182
 H         -0.5391308395       -1.1969144470       -0.8712436601
 C          0.5103658648        0.5037878335       -0.0094871844
 H          0.3911098457        1.1518924073        0.8600966292
 H          0.3944399220        1.1152669958       -0.9056411630
 O         -1.7891825170        0.2100258094       -0.0077307040
 H         -2.5646581753       -0.3620747640        0.0026734603
 N          1.8637421186       -0.1172780951        0.0059475213
 H          1.9871272141       -0.7237037735       -0.8163106221
 H          1.9839787968       -0.6890763203        0.8531041602
 H          2.5930828886        0.6072400317       -0.0077051379
 O          3.1940415761        1.3197461141        1.7310955781
 H          4.0344277401        1.1519669730        2.1922785727
 H          2.4993975826        1.3428110165        2.4084839198
 O          1.3711739157       -1.5018862054        2.4014350953
 H          0.8959364382       -1.1187500966        3.1476875110
 H          0.8690111775       -2.3165066111        2.1528493988
 O          2.0767483323       -1.8186448145       -1.9951049027
 H          2.9999235893       -2.1031733367       -2.1307372887
 H          1.7912734067       -1.3751344291       -2.8320777468
 O         -4.5182146377        0.4219003447        3.0054568230
 H         -5.4096154674        0.0401162421        3.0036208081
 H         -4.6189175237        1.3142839334        2.6106028997
 O         -0.3400469672       -0.5221406188        4.5613993843
 H         -1.0699829897        0.1505123252        4.6487053227
 H         -0.2323248634       -0.9207050874        5.4250473566
 O         -2.2845195035        1.2470573046        4.5194073089
 H         -3.1912054951        0.9591943518        4.3556828176
 H         -2.0307810126        1.7408789624        3.7193032340
 O          2.0032059094        1.8790318254       -3.0137791200
 H          2.6470066367        1.8107824338       -2.2847727961
 H          1.2209039343        2.3417310549       -2.6871168606
 O          5.4802665214        0.4043408345        2.9129321199
 H          6.2716453864        0.3692252221        2.3560313593
 H          5.2058692958       -0.5080623517        3.0557328290
 O          0.9957548378       -3.9943468451       -0.8897143312
 H          1.3288726290       -3.1937524550       -1.3428011773
 H          0.2149740409       -4.2538389965       -1.4152303582
 O          3.8689196434        1.3931561618       -1.0689428357
 H          4.2323613727        2.2123981846       -0.6343221620
 H          4.5523649595        1.1314631829       -1.7244794454
 O          0.9682445504        1.6092727242        3.3175151719
 H          0.1192242451        1.8544077523        2.8996527165
 H          0.7414955259        0.9308272443        3.9649433803
 O         -1.4358243247        2.0353754486        2.0611544966
 H         -1.2095130581        2.7792197427        1.4673899704
 H         -1.7196612098        1.3218405414        1.4624675129
 O          4.9122128101       -0.7766778217        0.1108984410
 H          4.5382317303       -1.1288884540        0.9518989099
 H          4.5023080970        0.0837733515       -0.1042395732
 O         -4.9936289418        2.7587331438        1.7371095444
 H         -4.3069789630        3.2536517522        1.2157605820
 H         -5.4919254307        3.4282854613        2.2066564418
 O         -3.3447122499        4.0669244156        0.1807574941
 H         -3.4250979900        3.4164198521       -0.5412674286
 H         -2.3989572051        4.2139049945        0.3030652765
 O         -3.4899976291        1.9275125229       -1.4538553102
 H         -2.7760411208        1.3686276518       -1.1152080448
 H         -3.5760297350        1.7517375429       -2.3970417353
 O         -4.1574322246       -0.6672302542        0.5047154986
 H         -4.1225642731       -0.3594596093        1.4280513039
 H         -4.7799444593       -0.0555662857        0.0689910218
 O         -1.3098773526       -0.0740194462       -3.1864339513
 H         -0.4908854687       -0.3887375119       -3.6021047649
 H         -1.6922452703       -0.8046065590       -2.6664866163
 O         -0.6618757871        2.4561572206       -2.3661943575
 H         -0.9434460466        1.5545753154       -2.6260582324
 H         -1.1141722915        3.0643795860       -2.9524520370
 O          1.2849984088       -0.4236650791       -4.0711109699
 H          1.5690546972        0.4671495624       -3.7382232124
 H          1.9824620873       -0.6810248120       -4.6820571063
 O          7.3631246291        2.2431608587       -0.7574275073
 H          7.3885748868        1.4912493276       -0.1233156643
 H          8.1934016038        2.7091022114       -0.6647029369
 O         -6.2154228092        0.9755474054       -0.0038508825
 H         -6.5569668147        0.4515231065        0.7563816493
 H         -5.8405385210        1.7803316386        0.3924757466
 O         -2.7685141641       -1.9595826382       -1.7355057432
 H         -2.8178222508       -2.3471132569       -0.8372503962
 H         -3.6510643664       -1.5912306094       -1.9184914859
 O         -6.9056629914       -0.6450467048        2.0571722616
 H         -7.8494067093       -0.7629626774        2.1718136185
 H         -6.5566957867       -1.5215492826        1.7301178206
 O         -0.5373688756        3.6936688368        0.1535676657
 H          0.4154132287        3.8072847960        0.3095757296
 H         -0.6105408773        3.2722245979       -0.7169525350
 O         -0.0261187486       -3.5723736307        1.5547363806
 H          0.3578584907       -3.7943126506        0.6825688091
 H         -0.9813920848       -3.5633850884        1.4108932315
 O         -5.7626517266       -2.7562393160        0.9641714355
 H         -6.2727339707       -2.8784720834        0.1340154628
 H         -5.0583825708       -2.1253923027        0.7155763587
 O         -5.1004455113       -0.5404724483       -2.3415010701
 H         -4.7100234060       -0.0500238564       -3.0826822615
 H         -5.4713976667        0.1291099585       -1.7522117033
 O         -1.2710663730       -4.1936439246       -2.3550837538
 H         -1.8199655051       -3.3977481513       -2.2455678415
 H         -1.8648110033       -4.9415124352       -2.2872815693
 O          2.1930022924        3.5775729008        0.5224703087
 H          2.9302606905        4.0441720335        0.1184724940
 H          2.5951093279        2.7889487189        0.9364160319
 O          7.3365751680        0.0282633699        0.7789501643
 H          6.4921388227       -0.3512360051        0.4341953281
 H          8.0216190317       -0.5742467188        0.4844821552
 O          3.9636488188       -2.0783439290        2.1838208693
 H          3.8865130979       -2.9168036996        1.7021847639
 H          3.0482154196       -1.8546051687        2.4451960251
 O         -2.7620217305       -3.1452956025        0.7468669634
 H         -2.6629916732       -2.4611390347        1.4374037675
 H         -3.6108042195       -3.5660849708        0.9180997174
 O          4.9958819955        3.4573962845        0.0368753925
 H          5.8889876962        3.2712311185       -0.2900213745
 H          5.0716608680        3.4381930176        1.0196907979
 O          4.6367403118       -2.7285046577       -1.6315629256
 H          4.7221675183       -1.9650956205       -1.0113431580
 H          4.3576066950       -3.4608913591       -1.0623841709
 O          3.4103257962       -4.2154756594        0.4018386672
 H          2.5242210020       -4.2160789817       -0.0065613325
 H          3.5393498157       -5.0967643872        0.7534591092
 O          5.9720293920        0.6332980519       -2.5335310995
 H          6.4081924510       -0.1774179997       -2.2091495486
 H          6.5226932177        1.3591265166       -2.2040387600
 O         -2.2834552509       -1.3301316747        2.6894433014
 H         -1.5528132086       -1.2557163317        3.3170472538
 H         -3.0036915639       -0.7884660837        3.0326339970
 O          5.1746085096        3.3205970110        2.6936114248
 H          5.4153305663        2.4972557820        3.1271795409
 H          4.3088259504        3.5937266199        3.0574611299
 O          7.2136967268       -1.6967485097       -1.7163451318
 H          6.4365620859       -2.2820182391       -1.7366042584
 H          7.8378705288       -2.0346185347       -2.3585695757
 O          4.0630617889       -0.9921802069       -3.9414794913
 H          4.5090162978       -1.7775532446       -3.6140115698
 H          4.6379019722       -0.2502398112       -3.7196201087
 O         -3.5891659254        0.9553497483       -4.1042419111
 H         -2.7193360791        0.5318286459       -3.9438285456
 H         -3.7069567742        1.0199333891       -5.0511622843
 O          2.5869330593        3.9070301515        3.3419937544
 H          2.0031599517        3.1687791332        3.5656892906
 H          2.3018852727        4.2081832068        2.4700913494
 O         -6.9153342672       -2.5044135354       -1.4296448890
 H         -6.2631909401       -1.9974068256       -1.9316585320
 H         -7.6490643009       -1.8875789601       -1.2763265657
 O         -8.4858858875       -0.2551031688       -1.0321678583
 H         -9.0034717112        0.1451280125       -1.7306075722
 H         -7.7726657474        0.3628918815       -0.8126263744
