  91
 
 H          0.7134522893        2.7286288357       -2.9870197344
 C          0.6567215542        3.0199088103       -1.9401531956
 H          1.4084627776        3.7847425149       -1.7618882326
 H         -0.3233020471        3.4532846116       -1.7491188050
 C          0.9075218122        1.8078292196       -1.0460815438
 H          0.8823643533        2.1284412404       -0.0014006036
 C         -0.2066028635        0.7712055694       -1.2489008757
 H         -0.1207223670        0.3338986257       -2.2439590261
 H         -1.1666491840        1.2888705867       -1.1787848459
 C          2.2806575980        1.2135908504       -1.3339595457
 H          2.4350885079        0.3174072092       -0.7418613070
 H          3.0618522383        1.9256638912       -1.0804677281
 H          2.3699447265        0.9640480238       -2.3868386821
 N         -0.2372738158       -0.3275278750       -0.2860161820
 H          0.5152895790       -0.9840464007       -0.4694478507
 H         -0.1279788933        0.0306269124        0.6572304737
 O         -2.6358984404        4.4019578266        1.2251549655
 H         -3.2785634881        5.1092308110        1.2795915261
 H         -2.4824791788        4.0904425606        2.1645075774
 O         -3.5369430418        0.7698191723       -1.9664349991
 H         -3.2026035009       -0.0936855198       -1.5779002482
 H         -4.4399022442        0.6014015340       -2.2387646288
 O         -2.1667546758       -3.8697116330       -1.4382678337
 H         -2.4976548299       -2.9733552844       -1.2229788605
 H         -1.6998110077       -4.1599551164       -0.6358981748
 O         -1.3038933232        1.1741454821        2.3720580233
 H         -1.5975522491        0.3610331438        2.8224453225
 H         -1.9440550516        1.3248606993        1.6467372063
 O         -2.6674892379       -1.3380336240       -0.7274056618
 H         -1.7396036082       -1.0329920439       -0.5112599452
 H         -3.2015268697       -1.2437267181        0.0943321045
 O         -0.3267476524       -3.2275113406       -3.1616912887
 H         -1.0790410039       -3.4719466999       -2.5486023095
 H         -0.1394662184       -4.0096413465       -3.6812206150
 O          1.5489565527       -2.6043560959       -1.3347712099
 H          0.8642347394       -2.7373877377       -2.0211169808
 H          2.3649408379       -2.3132846318       -1.8153978614
 O          3.1237564553       -2.7728930465        0.9087052678
 H          2.4795563193       -2.7023131361        0.1849407650
 H          3.8061433837       -2.1141254304        0.6776577107
 O          3.7801347734       -1.6905172825       -2.3908802239
 H          3.4463867058       -1.0790379287       -3.0791394367
 H          4.1342047833       -1.1461604774       -1.6769313730
 O          2.6354189372       -0.1581400888       -4.3256027761
 H          2.9995134516       -0.3182385072       -5.1966861321
 H          1.6819688051       -0.4032465069       -4.3900084406
 O          0.3858547935        4.7627546147        3.7489344906
 H          0.2999786236        5.0012746978        2.7902064224
 H          0.6729418827        5.5526374755        4.2058080843
 O         -2.0555248844        3.4913702959        3.6092104582
 H         -1.2256855048        3.9400304008        3.8457880665
 H         -1.7978700484        2.5933029363        3.3208046184
 O         -3.2473208236        1.7988053761        0.5820855897
 H         -3.3280953712        1.5799908789       -0.3635760850
 H         -3.1310504336        2.7612220051        0.6524074574
 O          0.0839503553       -0.8783557980       -4.5975280774
 H         -0.6592593995       -0.2567875193       -4.5118934979
 H         -0.1572390175       -1.6730477208       -4.0961964273
 O          1.0828093616        2.4846073756        2.1886641860
 H          0.2682632451        1.9581209644        2.2846675134
 H          1.1016047201        3.0844574654        2.9438533768
 O          4.5941929690       -0.5805237165        0.2416599574
 H          5.5139302798       -0.4153050306        0.4486066022
 H          4.0680652672       -0.0238630425        0.8671570374
 O         -2.2924757136       -1.0867970458        3.4937334302
 H         -1.6692911410       -1.8341385747        3.2752853539
 H         -2.5359560297       -1.1994367334        4.4124389264
 O          0.0684907619        4.9878764559        1.1252445969
 H          0.5180162023        4.1473999188        0.9671157620
 H         -0.8804319754        4.8162947551        0.9887802841
 O         -0.7635427492       -4.6708925938        0.8274345756
 H         -1.1128649063       -5.5162025073        1.1119355015
 H          0.1280801252       -4.8540487753        0.4349156631
 O         -0.5660729793       -2.9669524137        2.9883548203
 H         -0.6747231697       -3.4975069975        2.1793163138
 H          0.2768903578       -2.4852619416        2.8988362649
 O          3.1387960483        0.6472586823        2.1035999749
 H          2.6120668683       -0.0902841748        2.4554721345
 H          2.5126698124        1.3866643741        2.0146180866
 O          1.8634967595       -1.6912044147        2.9162127388
 H          2.2883432884       -1.9796359478        3.7248908460
 H          2.3373858626       -2.1553455306        2.1697798428
 O          1.6147921122       -5.0718226740       -0.2600810927
 H          2.3445534886       -4.9566537767        0.3545613592
 H          1.6074251061       -4.2504703148       -0.8004142848
 O         -1.8939505366        1.0182398854       -4.1647420912
 H         -2.4800012811        0.9107308807       -3.3921675531
 H         -1.4651276530        1.8687657370       -4.0588855111
 O         -4.0906791556       -0.7275142013        1.4443671287
 H         -3.5422484985       -0.9216790852        2.2225770733
 H         -4.0278683947        0.2276948681        1.3039902810
