 xtb: 6.5.1 (579679a)
          10122201333D

 91 65  0     0  0            999 V2000
    0.7135    2.7286   -2.9870 H   0  0  0  0  0  0  0  0  0  0  0  0
    0.6567    3.0199   -1.9402 C   0  0  0  0  0  0  0  0  0  0  0  0
    1.4085    3.7847   -1.7619 H   0  0  0  0  0  0  0  0  0  0  0  0
   -0.3233    3.4533   -1.7491 H   0  0  0  0  0  0  0  0  0  0  0  0
    0.9075    1.8078   -1.0461 C   0  0  0  0  0  0  0  0  0  0  0  0
    0.8824    2.1284   -0.0014 H   0  0  0  0  0  0  0  0  0  0  0  0
   -0.2066    0.7712   -1.2489 C   0  0  0  0  0  0  0  0  0  0  0  0
   -0.1207    0.3339   -2.2440 H   0  0  0  0  0  0  0  0  0  0  0  0
   -1.1666    1.2889   -1.1788 H   0  0  0  0  0  0  0  0  0  0  0  0
    2.2807    1.2136   -1.3340 C   0  0  0  0  0  0  0  0  0  0  0  0
    2.4351    0.3174   -0.7419 H   0  0  0  0  0  0  0  0  0  0  0  0
    3.0619    1.9256   -1.0805 H   0  0  0  0  0  0  0  0  0  0  0  0
    2.3699    0.9640   -2.3868 H   0  0  0  0  0  0  0  0  0  0  0  0
   -0.2373   -0.3275   -0.2860 N   0  0  0  0  0  0  0  0  0  0  0  0
    0.5153   -0.9840   -0.4694 H   0  0  0  0  0  0  0  0  0  0  0  0
   -0.1280    0.0306    0.6572 H   0  0  0  0  0  0  0  0  0  0  0  0
   -2.6359    4.4020    1.2252 O   0  0  0  0  0  0  0  0  0  0  0  0
   -3.2785    5.1093    1.2796 H   0  0  0  0  0  0  0  0  0  0  0  0
   -2.4825    4.0905    2.1645 H   0  0  0  0  0  0  0  0  0  0  0  0
   -3.5369    0.7698   -1.9664 O   0  0  0  0  0  0  0  0  0  0  0  0
   -3.2026   -0.0937   -1.5779 H   0  0  0  0  0  0  0  0  0  0  0  0
   -4.4399    0.6014   -2.2388 H   0  0  0  0  0  0  0  0  0  0  0  0
   -2.1668   -3.8697   -1.4383 O   0  0  0  0  0  0  0  0  0  0  0  0
   -2.4977   -2.9733   -1.2230 H   0  0  0  0  0  0  0  0  0  0  0  0
   -1.6998   -4.1599   -0.6359 H   0  0  0  0  0  0  0  0  0  0  0  0
   -1.3039    1.1742    2.3721 O   0  0  0  0  0  0  0  0  0  0  0  0
   -1.5975    0.3610    2.8225 H   0  0  0  0  0  0  0  0  0  0  0  0
   -1.9440    1.3249    1.6467 H   0  0  0  0  0  0  0  0  0  0  0  0
   -2.6675   -1.3380   -0.7274 O   0  0  0  0  0  0  0  0  0  0  0  0
   -1.7396   -1.0330   -0.5113 H   0  0  0  0  0  0  0  0  0  0  0  0
   -3.2015   -1.2437    0.0943 H   0  0  0  0  0  0  0  0  0  0  0  0
   -0.3268   -3.2275   -3.1617 O   0  0  0  0  0  0  0  0  0  0  0  0
   -1.0791   -3.4719   -2.5486 H   0  0  0  0  0  0  0  0  0  0  0  0
   -0.1395   -4.0096   -3.6812 H   0  0  0  0  0  0  0  0  0  0  0  0
    1.5489   -2.6044   -1.3348 O   0  0  0  0  0  0  0  0  0  0  0  0
    0.8642   -2.7374   -2.0211 H   0  0  0  0  0  0  0  0  0  0  0  0
    2.3649   -2.3133   -1.8154 H   0  0  0  0  0  0  0  0  0  0  0  0
    3.1237   -2.7729    0.9087 O   0  0  0  0  0  0  0  0  0  0  0  0
    2.4795   -2.7023    0.1849 H   0  0  0  0  0  0  0  0  0  0  0  0
    3.8061   -2.1141    0.6776 H   0  0  0  0  0  0  0  0  0  0  0  0
    3.7801   -1.6905   -2.3909 O   0  0  0  0  0  0  0  0  0  0  0  0
    3.4464   -1.0791   -3.0791 H   0  0  0  0  0  0  0  0  0  0  0  0
    4.1342   -1.1462   -1.6769 H   0  0  0  0  0  0  0  0  0  0  0  0
    2.6354   -0.1582   -4.3256 O   0  0  0  0  0  0  0  0  0  0  0  0
    2.9995   -0.3183   -5.1967 H   0  0  0  0  0  0  0  0  0  0  0  0
    1.6820   -0.4033   -4.3900 H   0  0  0  0  0  0  0  0  0  0  0  0
    0.3859    4.7628    3.7489 O   0  0  0  0  0  0  0  0  0  0  0  0
    0.3000    5.0013    2.7902 H   0  0  0  0  0  0  0  0  0  0  0  0
    0.6730    5.5526    4.2058 H   0  0  0  0  0  0  0  0  0  0  0  0
   -2.0555    3.4914    3.6092 O   0  0  0  0  0  0  0  0  0  0  0  0
   -1.2257    3.9400    3.8458 H   0  0  0  0  0  0  0  0  0  0  0  0
   -1.7978    2.5933    3.3208 H   0  0  0  0  0  0  0  0  0  0  0  0
   -3.2473    1.7988    0.5821 O   0  0  0  0  0  0  0  0  0  0  0  0
   -3.3281    1.5800   -0.3636 H   0  0  0  0  0  0  0  0  0  0  0  0
   -3.1310    2.7612    0.6524 H   0  0  0  0  0  0  0  0  0  0  0  0
    0.0839   -0.8784   -4.5975 O   0  0  0  0  0  0  0  0  0  0  0  0
   -0.6593   -0.2568   -4.5119 H   0  0  0  0  0  0  0  0  0  0  0  0
   -0.1573   -1.6731   -4.0962 H   0  0  0  0  0  0  0  0  0  0  0  0
    1.0828    2.4846    2.1887 O   0  0  0  0  0  0  0  0  0  0  0  0
    0.2683    1.9581    2.2847 H   0  0  0  0  0  0  0  0  0  0  0  0
    1.1016    3.0845    2.9438 H   0  0  0  0  0  0  0  0  0  0  0  0
    4.5942   -0.5805    0.2416 O   0  0  0  0  0  0  0  0  0  0  0  0
    5.5139   -0.4153    0.4486 H   0  0  0  0  0  0  0  0  0  0  0  0
    4.0681   -0.0239    0.8671 H   0  0  0  0  0  0  0  0  0  0  0  0
   -2.2925   -1.0868    3.4937 O   0  0  0  0  0  0  0  0  0  0  0  0
   -1.6693   -1.8341    3.2753 H   0  0  0  0  0  0  0  0  0  0  0  0
   -2.5359   -1.1994    4.4124 H   0  0  0  0  0  0  0  0  0  0  0  0
    0.0685    4.9879    1.1252 O   0  0  0  0  0  0  0  0  0  0  0  0
    0.5180    4.1474    0.9671 H   0  0  0  0  0  0  0  0  0  0  0  0
   -0.8804    4.8163    0.9888 H   0  0  0  0  0  0  0  0  0  0  0  0
   -0.7636   -4.6709    0.8274 O   0  0  0  0  0  0  0  0  0  0  0  0
   -1.1129   -5.5162    1.1119 H   0  0  0  0  0  0  0  0  0  0  0  0
    0.1281   -4.8540    0.4349 H   0  0  0  0  0  0  0  0  0  0  0  0
   -0.5661   -2.9669    2.9884 O   0  0  0  0  0  0  0  0  0  0  0  0
   -0.6747   -3.4975    2.1793 H   0  0  0  0  0  0  0  0  0  0  0  0
    0.2769   -2.4853    2.8988 H   0  0  0  0  0  0  0  0  0  0  0  0
    3.1388    0.6472    2.1036 O   0  0  0  0  0  0  0  0  0  0  0  0
    2.6121   -0.0903    2.4555 H   0  0  0  0  0  0  0  0  0  0  0  0
    2.5127    1.3867    2.0146 H   0  0  0  0  0  0  0  0  0  0  0  0
    1.8635   -1.6912    2.9162 O   0  0  0  0  0  0  0  0  0  0  0  0
    2.2883   -1.9796    3.7249 H   0  0  0  0  0  0  0  0  0  0  0  0
    2.3374   -2.1554    2.1698 H   0  0  0  0  0  0  0  0  0  0  0  0
    1.6148   -5.0718   -0.2601 O   0  0  0  0  0  0  0  0  0  0  0  0
    2.3445   -4.9567    0.3546 H   0  0  0  0  0  0  0  0  0  0  0  0
    1.6074   -4.2505   -0.8004 H   0  0  0  0  0  0  0  0  0  0  0  0
   -1.8940    1.0182   -4.1647 O   0  0  0  0  0  0  0  0  0  0  0  0
   -2.4800    0.9107   -3.3922 H   0  0  0  0  0  0  0  0  0  0  0  0
   -1.4651    1.8688   -4.0589 H   0  0  0  0  0  0  0  0  0  0  0  0
   -4.0907   -0.7275    1.4444 O   0  0  0  0  0  0  0  0  0  0  0  0
   -3.5422   -0.9217    2.2226 H   0  0  0  0  0  0  0  0  0  0  0  0
   -4.0279    0.2277    1.3040 H   0  0  0  0  0  0  0  0  0  0  0  0
  1  2  1  0  0  0  0
  2  3  1  0  0  0  0
  2  4  1  0  0  0  0
  2  5  1  0  0  0  0
  5  6  1  0  0  0  0
  5  7  1  0  0  0  0
  7  8  1  0  0  0  0
  7  9  1  0  0  0  0
  5 10  1  0  0  0  0
 10 11  1  0  0  0  0
 10 12  1  0  0  0  0
 10 13  1  0  0  0  0
  7 14  1  0  0  0  0
 14 15  1  0  0  0  0
 14 16  1  0  0  0  0
 17 18  1  0  0  0  0
 17 19  1  0  0  0  0
 20 21  1  0  0  0  0
 20 22  1  0  0  0  0
 23 24  1  0  0  0  0
 23 25  1  0  0  0  0
 26 27  1  0  0  0  0
 26 28  1  0  0  0  0
 29 30  1  0  0  0  0
 29 31  1  0  0  0  0
 32 33  1  0  0  0  0
 32 34  1  0  0  0  0
 35 36  1  0  0  0  0
 35 37  1  0  0  0  0
 38 39  1  0  0  0  0
 38 40  1  0  0  0  0
 41 42  1  0  0  0  0
 41 43  1  0  0  0  0
 44 45  1  0  0  0  0
 44 46  1  0  0  0  0
 47 48  1  0  0  0  0
 47 49  1  0  0  0  0
 50 51  1  0  0  0  0
 50 52  1  0  0  0  0
 53 54  1  0  0  0  0
 53 55  1  0  0  0  0
 56 57  1  0  0  0  0
 56 58  1  0  0  0  0
 59 60  1  0  0  0  0
 59 61  1  0  0  0  0
 62 63  1  0  0  0  0
 62 64  1  0  0  0  0
 65 66  1  0  0  0  0
 65 67  1  0  0  0  0
 68 69  1  0  0  0  0
 68 70  1  0  0  0  0
 71 72  1  0  0  0  0
 71 73  1  0  0  0  0
 74 75  1  0  0  0  0
 74 76  1  0  0  0  0
 77 78  1  0  0  0  0
 77 79  1  0  0  0  0
 80 81  1  0  0  0  0
 80 82  1  0  0  0  0
 83 84  1  0  0  0  0
 83 85  1  0  0  0  0
 86 87  1  0  0  0  0
 86 88  1  0  0  0  0
 89 90  1  0  0  0  0
 89 91  1  0  0  0  0
M  END
