  537

 H         -0.5425052555       -1.1597986892        0.9180896117
 C         -0.6112510534       -0.5412970403        0.0100769171
 H         -0.5391310443       -1.1969142871       -0.8712442914
 C          0.5103647683        0.5037894351       -0.0094857408
 H          0.3911100334        1.1518942192        0.8600971870
 H          0.3944398936        1.1152650873       -0.9056400256
 O         -1.7891834252        0.2100266260       -0.0077308360
 H         -2.5646606498       -0.3620771324        0.0026740846
 N          1.8637439443       -0.1172789280        0.0059445306
 H          1.9871281474       -0.7237045238       -0.8163117227
 H          1.9839795020       -0.6890767682        0.8531070341
 H          2.5930841586        0.6072411823       -0.0077051237
 O          3.6009454732        1.8574978986        0.1155704575
 H          4.4861860331        1.4720026408       -0.0356537958
 H          3.6141932612        2.2517392749        1.0145829003
 O          2.2050481075        0.2248931603        3.0815648489
 H          1.8303133410        1.0712107936        3.4219047961
 H          2.8382634066        0.4771369515        2.3982955273
 O          1.5217422451        2.5871308462        4.0452797930
 H          2.3787800638        2.7718593863        4.4684700085
 H          1.5060280263        3.0939735761        3.2128432809
 O         -3.3901644270       -0.3773273943       -2.6539527150
 H         -3.3841348870       -1.2375294336       -2.2138301159
 H         -3.6022790916        0.2962900124       -1.9724528876
 O          0.8536094627       -0.9258194971       -3.0573933815
 H          0.9567102094       -1.6744792895       -2.4398220392
 H         -0.0198929298       -1.0858955316       -3.4484956103
 O          1.2585859691        1.7935649070       -3.4760824394
 H          0.9111999503        0.8983311459       -3.3467045883
 H          0.6166146923        2.3307206244       -3.9814801089
 O         -1.3610595587        0.6201794154       -4.0534764580
 H         -2.0283494577        0.1064592152       -3.5524327479
 H         -1.8513143686        1.3884390418       -4.4179897570
 O          1.2624250054        3.8444165132        1.5737896836
 H          1.3330288222        3.5730688726        0.6334388047
 H          1.3150847982        4.8166801069        1.5524032414
 O         -0.7960563930        2.3406296839        2.3362040833
 H         -0.1651809198        2.9956962915        1.9766231566
 H         -1.6109185534        2.3336563935        1.7917344375
 O          1.2508247661        3.3643630937       -1.0372001578
 H          1.6170954433        4.1837776785       -1.4195582544
 H          0.4022145246        3.1988265392       -1.4623988851
 O         -1.3238595719        2.2380359403       -1.7809123127
 H         -1.6356706453        1.5535285267       -1.1583389414
 H         -1.2420459653        1.7968933698       -2.6386215995
 O         -4.1089041678        1.5348000060       -0.9581752325
 H         -4.0397571887        2.3630415110       -1.4728790363
 H         -3.7916624839        1.7275279380       -0.0500454607
 O         -1.3893534118       -2.1957758462       -3.6951667901
 H         -2.0454240309       -2.1689968277       -4.4214344102
 H         -1.8840345040       -2.4741066311       -2.8945602811
 O          4.3453948874       -0.4930069735        1.5021260304
 H          4.8578933076       -0.7934830347        0.7326062464
 H          4.2491448972       -1.3118937854        2.0363763901
 O         -3.9025580922       -1.2855404811        0.2868186976
 H         -4.4589977902       -0.6807261655        0.8247786810
 H         -4.4794063565       -1.6204845499       -0.4309473423
 O          3.5825223223        2.5381962699       -2.4344112679
 H          3.5290968462        2.5364208233       -1.4605397204
 H          2.6591979648        2.4264070366       -2.7256108145
 O          0.7211176381       -2.9695708464       -1.2780157426
 H          1.2590949410       -2.8260259242       -0.4906523714
 H          0.0074675870       -3.5762095718       -1.0100597382
 O         -3.4303555340       -0.2424019968        3.1012204008
 H         -2.4539710211       -0.2701369916        3.2049303524
 H         -3.7412370688       -1.1493266398        3.1968927159
 O         -0.8237157355       -0.0295422986        3.4722437159
 H         -0.6864427502        0.7887984666        2.9526158488
 H         -0.6057856861        0.2213820306        4.3964107161
 O         -3.4052572591       -3.6146542092        1.3229837435
 H         -3.1198039985       -3.4810645849        2.2423933108
 H         -3.4545918185       -2.7184618570        0.9212361771
 O          1.9227788897       -2.5599006015        1.2218350225
 H          2.8046645685       -2.7176865469        1.6264753664
 H          1.2955568628       -2.4701898824        1.9750351843
 O          0.2011232848       -2.3903051095        3.1896146544
 H          0.7601458174       -2.4328372270        3.9930838047
 H         -0.2106745975       -1.4957157686        3.2254919702
 O         -5.6523880796       -2.0064492040       -1.5591889232
 H         -6.3063008184       -2.6623501246       -1.2594509765
 H         -6.0723365262       -1.1156495980       -1.5095370047
 O          6.0313138327        0.9535787455       -0.5180592002
 H          6.2246450059        0.0047717798       -0.5194399010
 H          6.1303907908        1.2743313135       -1.4363119036
 O         -2.8952534087       -2.9973766390       -1.7003541170
 H         -2.3142716239       -3.3328807740       -0.9960888162
 H         -3.2499212309       -3.8136473054       -2.0948549452
 O         -1.2018503610       -4.4856961945       -0.2521264695
 H         -0.9525620791       -5.4157479986       -0.3991078069
 H         -1.1848360692       -4.3794906395        0.7163575259
 O          6.3690497284       -1.3627884512       -2.7461634093
 H          7.2344101441       -1.4075012016       -3.1905624834
 H          6.4839051946       -1.6284069401       -1.8206249663
 O         -5.6424251649        0.3121476646        1.4370870762
 H         -6.4234836355       -0.1183114384        1.0303097517
 H         -5.6525729512        1.2585771224        1.1785774935
 O          3.1535846274       -1.8109289934       -1.5891658680
 H          2.8212764538       -2.5054195078       -2.1935302836
 H          3.5507561239       -1.1203916811       -2.1730030980
 O          4.1622256893       -2.8707247899        2.5175071091
 H          5.0362910862       -3.2879109010        2.3093676806
 H          3.9337165647       -3.2166788518        3.4064655319
 O          4.1110016418        0.0204380192       -3.1580846986
 H          5.0463518182       -0.2224213764       -3.1243930736
 H          4.0240360503        0.9527288133       -2.8833707080
 O         -6.4719249362        0.4993142807       -1.4043753095
 H         -6.7373513286        0.7017314303       -2.3282199932
 H         -5.6035607692        0.9331245047       -1.2377823945
 O          6.0755422669       -2.0340309650        4.4907785395
 H          5.6582803190       -2.8601992912        4.7518894284
 H          5.3664144940       -1.3634874486        4.5543043585
 O          4.3333343102        0.0777929900        4.7127706426
 H          4.8504263064        0.8325986418        4.4157408928
 H          3.5794323861        0.0222288701        4.0868712702
 O         -3.2929019846        2.0214480588        1.5398228842
 H         -3.4055076644        1.1582581904        1.9693818550
 H         -3.7147499444        2.6683777598        2.1377689912
 O         -7.4318543815       -3.9016022468       -0.7803528780
 H         -8.3076952764       -3.7263498349       -0.3946643779
 H         -7.0180635635       -4.5882377683       -0.2231870848
 O         -6.0621258425       -3.1581278384        1.6212593905
 H         -5.2096822465       -3.5275230493        1.3350626633
 H         -5.8490536215       -2.7793546684        2.5118907424
 O          3.8786588756        2.5983843360        2.6180230212
 H          4.8281735987        2.4405885109        2.7014758474
 H          3.6879108674        3.5168210660        2.8755459873
 O          1.9735977462       -1.7899516115        5.0542634129
 H          1.5886966298       -1.5040480313        5.9077182484
 H          2.0358856731       -1.0102124331        4.4854337703
 O         -3.3564624748       -1.7980562621        6.1091931268
 H         -3.4169259730       -0.8321356930        6.1138430761
 H         -2.4357907874       -2.0261780438        6.3049228834
 O          4.3307153466        4.7494910001       -3.6400990657
 H          3.8830885859        4.6752969013       -4.5033470033
 H          4.1681335417        3.8784718137       -3.2039279897
 O          6.1132611562        1.0723915183        2.6365477724
 H          5.4524924844        0.4585363453        2.2308651747
 H          6.8708213403        1.0815191246        2.0190682148
 O          3.1962149691        5.0714405770        3.5772275235
 H          3.6547697290        5.5156782978        2.8463855824
 H          2.2883167578        5.4264710296        3.6143100569
 O          4.7883624642        5.5171079924        1.4226258775
 H          5.6683845852        5.9025152549        1.6497311008
 H          5.0004796688        4.6344071464        1.0756532483
 O         -4.7927984285        0.2958232969       -4.8859643836
 H         -4.2860496029        0.0031938900       -4.1048032347
 H         -4.1684394864        0.4001840074       -5.6196755118
 O         -2.6695406877        2.8300679848       -4.6363782033
 H         -3.2211923782        2.6844396376       -5.4110256919
 H         -3.2560099398        3.0856406848       -3.8897855553
 O         -4.0694143701        3.6530439844       -2.5128198772
 H         -4.9124296766        4.0929558126       -2.7374649554
 H         -3.4121904127        4.3761456531       -2.4376201431
 O         -4.0788184085        4.7212513649        0.3901522025
 H         -4.3909025729        5.3486838772       -0.2893066322
 H         -4.7279167631        3.9957249341        0.5087324574
 O         -6.2959594899        5.1474735758       -2.9548629412
 H         -6.9494074156        4.6820295555       -3.4925229724
 H         -6.6136688999        5.0248715297       -2.0309641509
 O          0.0167439014        5.6647465750       -3.4162044493
 H          0.9042145049        5.7140010171       -3.0117444868
 H          0.0558005939        4.9537221739       -4.0685192583
 O         -3.1182449785       -2.3266316973       -5.7151760929
 H         -2.9780289504       -3.2923823440       -5.7619635929
 H         -3.9685079013       -2.2107245674       -5.2495695101
 O         -3.3457288181       -5.5409203227       -2.4580670029
 H         -3.5124922149       -5.8062662247       -1.5307483989
 H         -4.2054087593       -5.5754173076       -2.9225911128
 O          2.7972736755        1.2911757103       -5.6071919278
 H          2.8339952807        0.3089118748       -5.5455746257
 H          2.3622387231        1.5438553364       -4.7610600798
 O         -3.8154452616       -5.9424122872        0.1670429838
 H         -3.6175265759       -5.0245827369        0.4613052155
 H         -3.3156711100       -6.4763907804        0.8270447640
 O          5.4505850718        1.5658847967       -5.3206940477
 H          5.7688759520        0.6750398479       -5.5745421151
 H          4.4816718498        1.5391640563       -5.4521380664
 O         -1.0572300152       -0.6681165008       -6.3707453351
 H         -1.7806760150       -1.3158462284       -6.3332016835
 H         -1.0206627506       -0.2802132947       -5.4629402200
 O          2.3286418996        5.5885689270       -2.1107280836
 H          3.0701815960        5.3698049399       -2.7165460033
 H          2.7099047944        6.1969391161       -1.4526270253
 O         -0.6015218865       -4.7371615526        2.3509110048
 H          0.2441786109       -5.0897314820        1.9930818422
 H         -0.3936840419       -3.8349908125        2.6676376944
 O          6.3385841569        2.0254767828       -2.9085113127
 H          6.4829992767        2.9938042640       -2.8689925639
 H          5.8619575950        1.8537680936       -3.7594386666
 O          2.5579014905       -1.2747424072       -5.0906385164
 H          3.3865044000       -1.7012469494       -4.7939236325
 H          2.0158483296       -1.1309804552       -4.2811876849
 O          8.8046816336       -0.0130992197       -1.2871209066
 H          9.7115085844        0.2206698366       -0.9978048507
 H          8.7195238716        0.3825270990       -2.1767353298
 O         -5.8734754747        2.8905298737        0.9887130731
 H         -6.2881197431        3.1238482285        1.8424161487
 H         -6.5121879147        3.1867798345        0.3099096459
 O          0.1189900057       -4.1551953276       -4.5499625708
 H          0.4318541777       -3.7688823136       -5.3983455211
 H         -0.3743425465       -3.4154461210       -4.1170126769
 O          8.3250180667        0.7230343844        1.2388457145
 H          8.3345230660        0.6023961805        0.2714062083
 H          8.2985995100       -0.1810039952        1.6119254061
 O         -8.7386498442       -1.1934711820       -1.8154770552
 H         -8.8851067508       -0.2613845240       -2.1176454644
 H         -8.1958216059       -1.1648316831       -0.9996970519
 O          6.1853439914        3.3114228888        0.7417425984
 H          6.6897334770        3.3227353843        1.5805860670
 H          6.2451767009        2.4167465038        0.3672158916
 O         -7.1927542510        0.8985489142       -3.9067890032
 H         -8.0280025371        0.5183308535       -4.2708964450
 H         -6.4520512482        0.5334675896       -4.4158579216
 O         -1.5435281625        4.1083218688        0.1231305579
 H         -1.4633421492        3.4591172204       -0.5901072525
 H         -2.5035293987        4.2932307737        0.2081055421
 O         -0.6166415523       -6.2043582542       -2.8453796066
 H         -0.2948577514       -5.5778969685       -3.5121584712
 H         -1.5375479079       -5.9629969719       -2.6719339158
 O         -5.2471454509       -2.5463202556       -4.1075540759
 H         -5.2020783071       -2.3133127666       -3.1527400793
 H         -6.1625699385       -2.2982928570       -4.3609223554
 O         -7.8599413487       -2.2123992331       -4.1830626220
 H         -8.0214054620       -3.1650146418       -4.0228591185
 H         -8.0416967566       -1.7833076059       -3.3236760759
 O         -0.1770765397        0.9498451654        5.8446069323
 H          0.7596909748        1.2006256536        5.9405738383
 H         -0.6830631557        1.7701130456        5.7614476735
 O         -4.1737253284        3.6205768673        3.5448365175
 H         -4.3212997932        4.5605623032        3.3400730941
 H         -3.3094875033        3.5590123202        4.0020277414
 O          1.5718857759       -5.1760444814        0.8832278694
 H          1.7161805341       -4.2075354224        0.9041283267
 H          2.4074249341       -5.5519559179        1.2445637530
 O         -1.6981452431        5.2705161250        2.6378539051
 H         -2.0604708714        6.0704741354        2.2280354896
 H         -1.4861050198        4.6957738281        1.8891530771
 O         -3.5740132997        0.9390156614        5.5232763484
 H         -3.6426363487        0.5478896922        4.6261304181
 H         -2.9178995949        1.6451690705        5.4292576496
 O         -7.5947470284       -1.2456486359        0.5835329860
 H         -7.0044712228       -2.0012035854        0.7890545067
 H         -8.2652079608       -1.2711243563        1.2988705788
 O         -1.8434853683        2.9563295261        4.7278641747
 H         -1.2688888008        3.6298161826        5.1507486579
 H         -1.4198477536        2.7658562109        3.8591710078
 O          3.7047228666       -3.8406042036        4.9341650493
 H          3.1497835817       -3.0916419035        5.2149418307
 H          3.0599899566       -4.5237499950        4.6565438886
 O          6.1986622560       -1.7208627383       -0.0591749829
 H          6.8093787716       -1.7974360585        0.7041483235
 H          5.6590397964       -2.5468423987       -0.0721008132
 O          3.7366846619        3.3209469281        5.5319702212
 H          4.6712386007        3.0798736850        5.4519868372
 H          3.6380732722        4.1750368501        5.0828843475
 O          4.5115789785       -3.7099278958       -0.2933768900
 H          4.8229400013       -4.2477568471       -1.0509524856
 H          3.8960280690       -3.0482331127       -0.6681058567
 O         -6.3805971805       -5.8644476956        0.7632541165
 H         -5.4201120552       -5.9429044568        0.5351362616
 H         -6.7622696354       -6.7357435667        0.6688538580
 O         -2.6816315432       -2.9989064419        3.8366513355
 H         -1.7676129175       -2.8631684422        4.1142344025
 H         -3.2175016927       -2.6369935431        4.5776984099
 O          6.4257334292        2.6680311875        5.3396482891
 H          6.8224440098        3.0916519410        6.0993492751
 H          6.8245389170        1.7684238656        5.2765187758
 O          2.5031784351       -3.8428982644       -3.1620361288
 H          2.3820815346       -4.5768272999       -2.5258292848
 H          1.7231462550       -3.8950599166       -3.7396859796
 O          5.4968012082       -5.1415963752       -2.3213795847
 H          6.2390863656       -4.7722318250       -2.8349697524
 H          4.8842680505       -5.5305481124       -2.9861138467
 O          7.5642352295        3.6483010164        3.0199133464
 H          8.4383240676        3.2122797238        3.0045505502
 H          7.1124747496        3.3492207782        3.8262697244
 O          9.8679938600        2.2794203828        2.7024612891
 H          9.3774523501        1.6541677838        2.1193691635
 H         10.2648705062        1.7357244830        3.3858335842
 O          7.8333133673        4.8401461799       -0.6304188807
 H          7.5943679687        4.8920953409       -1.5687202222
 H          7.1424507961        4.2725376706       -0.2141527109
 O         -5.4226475512       -5.1542595038       -4.0864451565
 H         -5.1041555895       -5.4569941545       -4.9372725644
 H         -5.3334355954       -4.1597846086       -4.1066981621
 O         -0.1094935601        3.4176289875       -5.1038940274
 H          0.0446454652        2.8645277255       -5.9037184323
 H         -1.0712052622        3.3724146172       -4.9497567855
 O          0.6426943461        6.0868314543        3.6682899986
 H          0.8976135124        6.6560947562        2.9296690753
 H         -0.2261194224        5.7222239123        3.3859196632
 O          1.8356439312       -5.4937943017        4.0197488973
 H          1.6929327346       -6.2478346011        3.4253604087
 H          1.1194522549       -5.5424390300        4.6629232085
 O          8.6086216985       -2.6747431888       -1.2845795183
 H          9.4987051995       -2.8716581831       -0.9548094569
 H          8.5762111418       -1.6936497657       -1.2878682940
 O          1.8592372179       -5.9537609678       -1.6408016689
 H          0.9835065137       -6.1601941337       -2.0000490750
 H          1.6985287915       -5.6666442675       -0.7114027906
 O         -2.4828489745       -4.8930271547       -5.2212356966
 H         -2.7535983229       -5.1910523548       -4.3463151328
 H         -1.5141113731       -4.8172229987       -5.1860108018
 O          7.7287985404       -1.6831029571        2.1115344887
 H          8.3336433565       -2.4426843100        1.9882535301
 H          7.1455219822       -1.9217475058        2.8498210431
 O          0.9242786173       -2.6807963146       -6.5923690427
 H          1.5913544197       -2.1395577989       -6.1075737321
 H          0.2067117704       -2.0603074037       -6.7793392510
 O          4.6884302581       -2.7537513568       -4.3353681919
 H          5.2733068855       -2.3719980153       -3.6511185868
 H          4.0642327619       -3.3419892828       -3.8721633119
 O          0.8817371142       -1.0093505656        7.3795918465
 H          0.2015819569       -0.4162305731        7.0189446859
 H          1.5937801012       -0.4188808369        7.6493568030
 O         -8.2320559268        1.9212805728       -0.0210954346
 H         -8.3005371400        1.5475862731        0.8766223656
 H         -7.5486693186        1.3762201382       -0.4694833099
 O         -8.0394861654       -4.7126358202       -3.2642797132
 H         -7.2389043263       -5.1149727380       -3.6305965247
 H         -7.8030909529       -4.4787139359       -2.3407623424
 O          7.3697892070       -4.7932121713       -0.1423464318
 H          6.8289575685       -5.2482712202       -0.7956619702
 H          7.7002504964       -3.9893779157       -0.5845061207
 O          4.0468698058       -5.8096562291        1.4327064139
 H          4.3153234461       -4.9795200353        0.9972324897
 H          4.1884186538       -6.4999363182        0.7496955274
 O          2.4982255729        1.0949265361        6.5387388137
 H          2.7880079808        2.0153947137        6.5399752305
 H          3.1844844682        0.6195234804        6.0401440127
 O          6.9715542648        4.6024728348       -3.2264862473
 H          6.0536456622        4.8945579935       -3.3953409020
 H          7.3046306499        4.3078000961       -4.1017130671
 O         -7.1940498879        4.5660478151       -0.5690132633
 H         -7.2448183442        5.1330373474        0.2349180956
 H         -8.0959476881        4.2941149071       -0.7889392717
 O          6.2799817903       -0.9457634281       -5.8388187050
 H          7.1507206122       -1.1588598882       -5.4880213494
 H          5.6732687091       -1.6069601068       -5.4833269842
 O          9.9166305390       -0.5350344200        3.9440169236
 H          9.0847107501       -0.0993376459        4.2082827087
 H          9.7572077192       -1.4771267200        4.1530730323
 O         -2.2644329602       -6.8780379847        2.0940462697
 H         -1.6461536488       -6.1285140753        2.0478158644
 H         -2.7749675783       -6.6601499002        2.9061663435
 O          6.4751760527       -4.0296688925        2.2816005988
 H          6.7012321069       -4.3992490575        1.4105904817
 H          6.2684931614       -4.7904428498        2.8642158847
 O         -0.5905809844        6.4472692518       -0.6198137717
 H         -0.3946639037        6.4444933378       -1.5605190037
 H         -0.9092763568        5.5372633451       -0.3953426507
 O         -9.1949591902       -1.8192320857        2.6115373778
 H         -8.9116359147       -2.7601198281        2.6000055261
 H        -10.1381472421       -1.8265209164        2.3415252601
 O          0.4936827747        1.6459754367       -6.9950979595
 H          1.4034411110        1.4792766353       -6.6813154914
 H          0.0443304034        0.7945521477       -6.9698456828
 O         -5.3704486775       -2.2955625748        3.9806145357
 H         -5.9260391750       -2.8555360967        4.5464595604
 H         -5.6530703444       -1.3801215806        4.1464145836
 O         -8.5309658800        0.9515254172        2.4228897448
 H         -9.3995021465        0.5972336731        2.6769037754
 H         -7.8630407135        0.5400722117        3.0019549053
 O          7.4783132308        0.3182328975        4.7355927204
 H          7.0036395223        0.5016090851        3.8845612854
 H          7.1650956729       -0.5529332286        5.0133380732
 O         -8.3501864499       -4.3135920360        2.3789360349
 H         -7.4777083028       -4.0603256333        2.0011608046
 H         -8.9179806436       -4.5664910371        1.6423496781
 O         11.0407317046        1.0211071179       -0.2992246775
 H         11.2214793513        0.5474297085        0.5317862553
 H         10.7088702625        1.9071404647       -0.0695844788
 O         -0.7509144378       -2.7781052729        5.8926892305
 H         -0.1734764875       -2.5572425700        6.6266110425
 H         -0.6980010998       -3.7435076535        5.7558193019
 O        -11.0568474227       -0.5640503346       -0.4539809767
 H        -10.9857351371        0.3365232612       -0.0740604714
 H        -10.1641146891       -0.8424257797       -0.7256551341
 O        -10.9439928008        1.9429289768        0.4293825920
 H        -11.1446369986        2.2583285009        1.3175146713
 H        -10.0178387077        2.1985186893        0.2700298570
 O         -3.3361908920       -5.6612669856        4.1919412490
 H         -3.1664554978       -4.7086229806        4.0635997352
 H         -4.2997979064       -5.7637810887        4.0919991605
 O         -9.3053260300        1.2917489461       -2.4030648055
 H         -8.9958230106        1.7390737974       -1.5993918562
 H        -10.2351781332        1.5431005485       -2.5181630258
 O         11.3736244254       -0.6256465522        1.7891255954
 H         10.7433390173       -0.5891859201        2.5554722349
 H         12.2378948095       -0.7736973332        2.1718407696
 O         -0.7515554255       -5.3505842857        5.0351255208
 H         -1.6268059663       -5.7157870424        5.2075646101
 H         -0.7456005406       -5.1927517411        4.0702050904
 O          7.3186966715        6.1330007397        1.8071246418
 H          7.6673223403        5.9289927192        0.9267765190
 H          7.5329664484        5.3675927436        2.3639439026
 O          8.7136125773        1.2843257145       -3.6447920832
 H          9.2809273219        2.0193659639       -3.3455456423
 H          7.7872534152        1.5477112085       -3.4052128312
 O         -9.9933536275       -3.8049138539        0.1842966667
 H        -10.6544933912       -3.3697300023        0.7346385200
 H        -10.3352224434       -3.7436775823       -0.7309416961
 O         10.1292133725        3.3416575924       -2.6710224454
 H         10.2484646130        3.3870630228       -1.7106823865
 H          9.6695570770        4.1453508123       -2.9235354308
 O          2.6897733164        4.1423839190       -5.6863121097
 H          1.7382055898        4.1601638005       -5.5424549583
 H          2.8964334485        3.2557813640       -5.9997085348
 O         -8.1411005081        3.3715905547       -4.0561128846
 H         -8.8403740901        3.2540323655       -4.7000903054
 H         -7.8568885904        2.4552017588       -3.8181515817
 O         -5.9347005930       -5.7315389406        3.5966976643
 H         -6.4677373693       -5.1420011827        4.1363421404
 H         -6.2246533657       -5.6394441501        2.6784761895
 O        -11.8158260789        2.2392974451       -2.1411024509
 H        -12.3155226203        1.5053138925       -2.5068614518
 H        -11.8058009218        2.1349279359       -1.1735311734
 O          4.2089072869       -7.2070967573       -0.8067404160
 H          3.3473572878       -6.9601400076       -1.1763000410
 H          4.8617017885       -6.7744906819       -1.3685273767
 O          8.6520530731       -1.3455726458       -4.2105927258
 H          9.4369801859       -1.6293888205       -3.7056433994
 H          8.7353554755       -0.3781872363       -4.2456512944
 O         -6.3912490927        0.1895806407        3.9159617691
 H         -6.1594891730        1.0064254055        4.4101591323
 H         -5.9359622893        0.2505339589        3.0381515110
 O         11.0885421971       -2.5341574157       -0.1810900632
 H         11.1948272544       -1.8196369317        0.4714644656
 H         11.2713239095       -2.1438393756       -1.0511295165
 O         -7.4608121788        3.3573746395        3.0862459253
 H         -7.1420341118        3.2454653578        3.9860043971
 H         -8.0312579551        2.5848941925        2.8967907645
 O        -10.3996282363       -3.2831345562       -2.4338122195
 H         -9.8708653515       -3.9442634426       -2.8928768110
 H         -9.8096256703       -2.5209676036       -2.2861867459
 O         -2.5991151347        5.7981980307       -2.9122124456
 H         -1.6457765022        5.8059471272       -3.1060066867
 H         -3.0595750199        5.8113528494       -3.7767094152
 O          9.3719083916       -3.7999105475        1.6523891203
 H         10.0998750491       -3.5475611176        1.0691655737
 H          8.8262518589       -4.4322171085        1.1677125120
 O         10.9967728214       -1.6083885949       -2.8169224693
 H         11.6213292722       -2.1204792092       -3.3285029840
 H         11.2840917161       -0.6653679360       -2.8928884292
 O         -4.4749409656        6.7539675251       -1.2783782884
 H         -5.2443380210        6.7155780148       -1.8509533737
 H         -3.7020681914        6.5805182717       -1.8533489658
 O          0.1896482715        4.2852863991        5.7302288461
 H          0.3455248546        5.1548447777        5.3465166718
 H          0.7348834482        3.6747707343        5.1986460233
 O         -7.3157220211        5.7511348730        1.7970465581
 H         -6.4481510806        6.0940095440        2.0762206908
 H         -7.4486214331        4.9623487262        2.3521066606
 O        -11.5413785714       -0.6396277699       -3.1430282455
 H        -11.5759530703       -1.5833296680       -3.3229971245
 H        -11.4807323339       -0.5862776235       -2.1714363919
 O         10.0103343887        3.4951105158        0.1294068362
 H          9.2111873612        4.0245617570       -0.0896987863
 H         10.0730877774        3.4732245425        1.0906921929
 O          3.7430541139       -6.2622605138       -3.9705852429
 H          3.4853116633       -5.7251421676       -4.7386647903
 H          2.9396298933       -6.4530342444       -3.4800235479
 O          7.5896366918        3.2583572012       -5.4493787512
 H          8.2358595077        2.5665094565       -5.2730259610
 H          6.7544820421        2.7910169838       -5.6253344397
 O          9.0477551975       -3.0752889882        4.3403988086
 H          9.2442598591       -3.5713486448        3.5333341054
 H          8.0968038458       -3.1309521986        4.4694156220
 O          7.6654549726       -4.0148482984       -3.4648696859
 H          8.0968964426       -3.5426652736       -2.7293373362
 H          7.8186876161       -3.4910443432       -4.2520557878
 O         -0.5987927767       -7.1448341073       -0.2175275832
 H         -0.6436648915       -7.4378536978       -1.1317543701
 H         -1.3150130416       -7.5521966517        0.2782823812
 O         -2.6631429245        7.3100045728        0.9689684222
 H         -1.8670341733        7.2228565236        0.4202135834
 H         -3.3916740890        7.3195991767        0.3381090603
 O          3.1001575527       -4.5108235729       -6.0039015440
 H          2.3756255306       -4.0614686226       -6.4493030656
 H          3.8000506043       -3.8629121825       -5.8811198067
 O         -5.8011432549        2.4102803757        5.2449941923
 H         -5.2538951690        2.9384921685        4.6152302336
 H         -5.1251638523        1.9185367284        5.7460070187
 O         -9.4271762379       -0.0911284720       -4.9288734293
 H         -9.0701254727       -0.9883451863       -4.9937037313
 H        -10.1856275639       -0.1429976970       -4.3226685401
 O          0.6818959647       -7.3940981044        2.3782731980
 H         -0.2428395268       -7.5414389402        2.5975532870
 H          0.7163615161       -7.2879851404        1.4209781343
 O         -7.5432194814       -3.5902403618        4.9577360065
 H         -8.0015479267       -2.8049311852        5.2927874350
 H         -8.0740812838       -3.9228436934        4.2224082805
 O          5.4125790448       -5.9148534600        3.7887745995
 H          4.8860264140       -5.4579861971        4.4502389520
 H          4.8118133846       -6.0955973223        3.0422243171
 O        -10.6427759667        2.9028230382        3.1622419995
 H         -9.9924673765        2.8144786387        3.8731913528
 H        -10.3127642323        3.5922682621        2.5635727771
 O         -8.5961258255       -0.9538345778        5.0581967785
 H         -7.6899443967       -0.6643654771        4.8720097781
 H         -8.9356317113       -1.2481868562        4.1846259500
 O         -9.6457681466        4.1159571661       -1.7852116462
 H        -10.5095888103        3.7171731174       -1.9388621445
 H         -9.1269838600        3.9229724641       -2.5859946050
 O        -11.0545691731        0.2481504978        3.3225624288
 H        -10.8904802149        0.0172497296        4.2391124774
 H        -11.1622482199        1.2154292509        3.3015425478
 O         -9.8072188400        4.5426099265        1.1074099940
 H         -9.9458025065        4.5629894171        0.1545954825
 H         -9.1929623102        5.2506726968        1.3243801765
 O         -4.3367654475        5.5214728643       -4.9203656405
 H         -5.0915581964        5.7408746592       -4.3617179392
 H         -4.5317602128        4.6277973524       -5.2408662081
 O         -8.8051738916        1.8395329092        5.1467273181
 H         -8.8692758681        0.8778396486        5.2710092324
 H         -8.0145777806        2.1120213986        5.6191293680
 O          3.6938995549        7.0829350865       -0.3519107691
 H          4.3905445133        7.6059010390       -0.7448393532
 H          4.1275806196        6.4729415474        0.2988035779
 O        -11.6733034394       -1.9834700954        1.6815750189
 H        -12.0697659764       -1.3698998636        2.3066835982
 H        -11.5845830213       -1.4770166882        0.8419435935
 O          1.4059012696        6.5629893532        1.1386567668
 H          2.1776938439        6.9260179425        0.6914859519
 H          0.6731340005        6.6099832987        0.4901823332
 O         11.8227649031        0.8999727081       -2.8551971451
 H         11.7610891071        1.0208086722       -1.8910463810
 H         11.4205307411        1.6858864625       -3.2351964081
 O         -5.4231475695        2.9913276917       -5.2872750264
 H         -6.3430340877        3.1551247394       -5.0611416839
 H         -5.2630942650        2.0507896123       -5.1009594931
 O         -3.0428635638        1.1355276281       -6.7906100724
 H         -2.2506981152        0.5664294970       -6.8264977068
 H         -3.2184808767        1.4419177813       -7.6760028429
 O         -4.7187832620        6.0928524230        2.5483578631
 H         -4.1711301254        6.8748778962        2.6339382068
 H         -4.3932148719        5.6391717744        1.7298914241
