  86

 H          0.4630927076        1.1941025328        0.8323452958
 C          0.5529035761        0.5095402430       -0.0251092077
 H          0.4633421182        1.0989800596       -0.9466436098
 C         -0.5779259333       -0.5149488604        0.0205351874
 H         -0.4518492549       -1.1270258237        0.9278134322
 H         -0.4840892691       -1.1748678656       -0.8448928486
 N         -1.8603253885        0.1647702475       -0.0623309409
 H         -2.6131021663       -0.5138473280       -0.0751527666
 H         -1.9956541839        0.7570092262        0.7508171932
 O          1.7808081027       -0.1833448059        0.0209869107
 H          2.5006908392        0.4507195084       -0.0567171281
 O         -1.5928568945        1.3223418513       -2.4332856007
 H         -1.8902565622        0.5841104779       -3.0343498043
 H         -1.6673687319        0.9062204023       -1.5243444004
 O         -2.1107514258       -0.8653968502       -3.7283067189
 H         -2.8358752087       -1.2668487118       -3.2138231301
 H         -1.3539635571       -1.4679907780       -3.5910196424
 O          3.0926332284        2.1487078912        0.4146332109
 H          2.5088181284        2.7018466647       -0.1198565462
 H          3.9255513514        2.1195035320       -0.0925399848
 O          3.3560930432       -0.1216297067        3.3087760153
 H          2.6118899767       -0.7472178904        3.2924720840
 H          2.9496843246        0.7534586635        3.3237503156
 O         -3.7115733407        2.6182940767       -1.4354827269
 H         -2.9831524638        2.2520279480       -1.9838952441
 H         -3.2853867377        3.1293803652       -0.7437548929
 O         -4.9980824670        0.4654392389       -0.6614954218
 H         -4.4886745791        1.2737047344       -0.9449832073
 H         -5.8649472801        0.5564266798       -1.0602948412
 O         -0.3791417854        0.1905244385        3.3641053676
 H          0.2743618835        0.9109509479        3.2988639486
 H          0.1341011099       -0.6034857484        3.1528422915
 O          1.5879169400        2.0989615466        2.7642372529
 H          2.2286875019        2.1239840338        2.0367201998
 H          0.9359757549        2.7841082963        2.5120888792
 O         -0.3005841342        3.6170287028        1.5567950044
 H         -0.2850144154        3.6779669003        0.5870422792
 H         -1.1335625223        3.1856947289        1.7872188210
 O         -2.3579371724        1.8510142744        2.2780087451
 H         -1.7667529189        1.3235203035        2.8387771778
 H         -3.2535686497        1.5131816669        2.4055465196
 O          1.3741878203       -1.7208139873        2.3449401604
 H          1.5652383250       -1.2224872568        1.5254709052
 H          1.5559454288       -2.6375301387        2.1255116370
 O         -4.7022102498        0.3358330350        2.0114604422
 H         -5.5848807078        0.2412106810        2.3693787625
 H         -4.7957827655        0.3702957145        1.0334283590
 O          2.3712747210       -1.2547760664       -2.3648730201
 H          2.0610731682       -1.1066368732       -1.4479171055
 H          2.0111878464       -0.4957666950       -2.8565928436
 O         -0.0181026246       -2.4908451074       -3.0995736379
 H          0.9038876314       -2.2114999312       -2.9988440486
 H         -0.1779308003       -3.1115871632       -2.3649844540
 O          0.8387347803        0.7423974212       -3.4828356651
 H         -0.0146282601        1.0083891046       -3.0682393491
 H          0.5755901672        0.2336896415       -4.2518604604
 O          4.8792711598       -0.7216226161       -1.4775669283
 H          4.0598797561       -1.0003292132       -1.9329730307
 H          4.7487736152       -0.9265204679       -0.5365119035
 O          4.4079175765       -1.3174047369        1.1852540571
 H          4.0417578658       -0.7518597519        1.9119466348
 H          5.1626164801       -1.7648809115        1.5703054731
 O          2.5050069136       -3.0760217423        0.1477514217
 H          3.1814296597       -2.4669363715        0.4951913358
 H          2.7512753726       -3.2551169867       -0.7620703657
 O         -2.6958947096       -1.4714656014        2.6398350411
 H         -1.9569336439       -0.9539482749        2.9849010237
 H         -3.4273716990       -0.8476418034        2.4947164011
 O         -2.5725697308       -2.9162242627        0.4020613574
 H         -2.5715001833       -2.4157359138        1.2516260025
 H         -3.0397191957       -3.7342136681        0.5741553517
 O         -0.1660501719       -3.8415247711       -0.7352213009
 H          0.6223052691       -3.5776448952       -0.2456793012
 H         -0.9402416628       -3.4879314665       -0.2710051901
 O          4.9656872230        1.8896267092       -1.4849984265
 H          5.8775397345        2.1302678150       -1.3268950468
 H          4.9620246266        0.8970927666       -1.5663011363
 O         -3.8833765307       -1.8228700039       -1.8788152004
 H         -3.3742391605       -2.2754195955       -1.1903562201
 H         -4.2934120787       -1.0493090478       -1.4628886903
 O         -0.2552888735        3.5533592445       -1.2324529085
 H          0.6422200522        3.5402376207       -1.5893037900
 H         -0.7609211104        2.9316536951       -1.7717196412
 O          2.2897732472        2.7767162166       -2.2127013777
 H          3.2445681932        2.6381969081       -2.2234641127
 H          1.9127207900        2.1165926029       -2.8122404551
