  192

 H         -0.5425054111       -1.1597996584        0.9180873601
 C         -0.6112510050       -0.5412956732        0.0100749182
 H         -0.5391308394       -1.1969144472       -0.8712436601
 C          0.5103658646        0.5037878336       -0.0094871839
 H          0.3911098456        1.1518924073        0.8600966289
 H          0.3944399221        1.1152669951       -0.9056411620
 O         -1.7891825172        0.2100258089       -0.0077307039
 H         -2.5646581752       -0.3620747641        0.0026734605
 N          1.8637421189       -0.1172780952        0.0059475206
 H          1.9871272139       -0.7237037743       -0.8163106219
 H          1.9839787969       -0.6890763207        0.8531041604
 H          2.5930828887        0.6072400314       -0.0077051374
 O          3.5898803238        1.7896550502        0.5518008967
 H          4.0879199984        2.3578051820       -0.0660247349
 H          4.2102169719        1.1544835436        0.9766856867
 O          0.8166365174       -4.0071354848        0.7042145631
 H         -0.0844978448       -4.0105518911        1.0876142294
 H          0.6975398014       -4.3048248444       -0.2143834130
 O          1.7302491025       -1.2305053206        2.4814738931
 H          2.2526736121       -0.6390954461        3.0656184000
 H          1.9411770426       -2.1449138893        2.7558789264
 O         -2.2559006825       -1.8372597231       -2.6247788721
 H         -2.2252587834       -0.8658270286       -2.6723551903
 H         -3.1700103356       -2.0817842740       -2.8836403346
 O          1.7459434538       -1.7992452819       -2.0915115073
 H          2.2904015292       -2.5970891763       -2.0943911387
 H          1.0645692318       -1.9363030952       -2.7695722964
 O         -0.0783249952       -2.6409783458       -3.9155450143
 H         -0.9121886823       -2.4727434642       -3.4209413449
 H         -0.1489250992       -2.0127381556       -4.6511659738
 O          0.3153399701       -4.6830753455       -1.9280026071
 H          0.2883960473       -4.0894751404       -2.6898490919
 H         -0.6152079771       -4.8411185766       -1.7118983251
 O         -2.0165881869        0.9548492620       -2.5256882104
 H         -1.9276514499        0.7997194461       -1.5604145327
 H         -1.1060467755        1.0407826835       -2.8923359295
 O         -2.3234795556       -4.2056998067       -1.1590052146
 H         -2.3084870367       -3.2849996169       -1.4754587296
 H         -3.2355277177       -4.5015535368       -1.2402148951
 O          3.1595020863       -2.8580951058        0.2328701441
 H          3.7137559518       -2.8690803918        1.0472232192
 H          2.2481063716       -3.0957850918        0.4789389140
 O         -3.7580672674       -1.6680455528       -0.2612297999
 H         -3.7021142187       -1.6124223402        0.7056951509
 H         -4.4111670625       -1.0085462341       -0.5816944704
 O          2.5811123518        2.8062884107        2.7962207721
 H          2.8692430011        2.4343374930        1.9318357530
 H          1.6070382228        2.8179147879        2.7642543437
 O         -0.1132081753        2.6038757185        2.5449384281
 H         -0.6559442965        3.0398130920        1.8722374131
 H         -0.7533112467        2.0914127603        3.0586996593
 O          0.3695757286        1.3039860876       -3.5391808494
 H          0.3902282024        2.2873400540       -3.5398659863
 H          1.2096155274        1.0452451634       -3.0789627503
 O         -0.6648165885       -1.1540246823        3.7260028106
 H          0.1707255035       -1.0538049517        3.2239755194
 H         -0.6259068900       -2.0716513843        4.0744449403
 O         -4.9932002983        3.4195540926       -1.8995152692
 H         -4.1327691005        3.8323506736       -2.0806885399
 H         -5.0649026624        2.7133344985       -2.5564776759
 O          0.4789406135        3.9204564189       -3.0756738507
 H          0.6263304261        3.7796715911       -2.1028883315
 H         -0.4289052367        4.2481098263       -3.1274321848
 O         -2.2174874384        3.7241047517       -2.2010779999
 H         -2.0580840292        3.6852223060       -1.2425529572
 H         -2.2063579575        2.7961921512       -2.4877139066
 O         -1.8915140363        3.0274763090        0.4665590616
 H         -1.8722886990        2.0569966568        0.4151661649
 H         -2.7989562225        3.2475270288        0.7392427856
 O         -2.2345779283        1.0381548117        3.3463687868
 H         -1.6572015694        0.2920362945        3.5780339949
 H         -3.0165525533        0.9598691099        3.9124367921
 O         -1.7588460367       -4.1179940354        1.4920804307
 H         -1.9897896023       -4.2379557652        0.5503529424
 H         -2.1425269396       -3.2444421819        1.7415093288
 O          2.6952257696        1.0181042942       -2.4010061996
 H          3.0251292895        1.8928273585       -2.6512767021
 H          3.1799956159        0.3589463327       -2.9230650956
 O          4.5005513181       -0.9463925700       -1.0168662868
 H          3.9260847670       -1.5954096923       -0.5725030392
 H          4.3180600984       -1.0445262528       -1.9717722722
 O          4.9884542495        0.0492292281        1.9359244501
 H          4.9960472904        0.6377899953        2.7168805925
 H          5.8863879343        0.0964573873        1.5549266337
 O          6.2978825840        0.9648526677       -1.4536400338
 H          6.9122041756        0.8297715461       -0.7153730931
 H          5.5275041092        0.4046884866       -1.2325606857
 O         -4.7973085788       -2.4837818406       -3.1526310409
 H         -5.2836888725       -1.7018605580       -2.8655562949
 H         -5.0296775321       -3.1842296348       -2.5188188566
 O         -5.5327926466       -0.1347073853       -1.5251685231
 H         -5.9552864768        0.5583423280       -0.9653028630
 H         -5.1843214037        0.3594720635       -2.3027644013
 O          0.8077742994        3.4780908551       -0.5221048328
 H         -0.0126097386        3.6543367598       -0.0530820877
 H          1.5148166993        3.9942039670       -0.0850219434
 O          5.0086538818        3.3168963212       -1.1428367812
 H          5.5368380070        2.5626012717       -1.4754205706
 H          4.4240448869        3.5855192345       -1.8677691822
 O         -4.5846059372        3.1582502951        0.7787602850
 H         -5.3788917619        3.0373919031        1.3183874813
 H         -4.8755350601        3.2663324242       -0.1490021858
 O         -4.0673001149        0.5802135025        1.2606576187
 H         -4.2987432474        1.4992061584        1.0227556186
 H         -3.4061712055        0.6530355973        1.9688057899
 O          2.2565697934       -3.8251352717        3.0676782773
 H          3.2203864335       -3.8138551234        3.0359016603
 H          1.9290256554       -4.2115557498        2.2400796649
 O          5.3665350168        2.2012822340        3.5249818469
 H          5.7750867027        2.6634368722        2.7680069543
 H          4.5369830524        2.6571946507        3.6942825141
 O         -5.1837904174       -3.8343003140       -0.7441794776
 H         -6.0907035263       -3.5040711535       -0.6283613387
 H         -4.6122535188       -3.0559405577       -0.5255808917
 O          6.4784026668        3.0873676069        1.2297495315
 H          7.1925189584        2.4855305545        1.0056881611
 H          6.0853162401        3.3890425805        0.4013149700
 O          3.1857680128       -4.2608930776       -2.0366107063
 H          3.3540540478       -3.9145945012       -1.1359320788
 H          2.4310867737       -4.8543828845       -1.9556778258
 O         -4.4948777304        1.1971212219       -3.5498235581
 H         -3.5801691040        1.2172467335       -3.2169994452
 H         -4.4324418619        0.6253960350       -4.3374424789
 O         -5.1762909272       -2.1690008348        3.4645415370
 H         -5.1291202817       -3.0877492119        3.1385665179
 H         -5.7954037383       -1.7147563452        2.8578549416
 O          3.2278017181        3.5993566767       -3.2596185655
 H          3.5223684965        3.7648694844       -4.1551742049
 H          2.3014982020        3.8925512355       -3.2108391899
 O          6.5675665221       -2.2367041311        0.2430471293
 H          5.8522125389       -1.7138217115       -0.1744659651
 H          6.7309330089       -2.9307836202       -0.4142528751
 O         -3.6152708192       -0.7173009126       -5.2053195320
 H         -2.6462490793       -0.7319703161       -5.1781895277
 H         -3.9312185156       -1.5758381905       -4.9094597865
 O         -0.7786555317       -0.4059128934       -5.2547579768
 H         -0.3337813605        0.2193624236       -4.6452668678
 H         -0.7373013420        0.0020879159       -6.1173926891
 O         -7.1978407485       -1.9737257325       -0.4230533580
 H         -6.9690188487       -1.6175627856        0.4590230832
 H         -6.7039849636       -1.3970712838       -1.0306817390
 O         -2.8054816401       -1.8099296449        2.2518576240
 H         -2.0680781614       -1.4950123786        2.8112925225
 H         -3.5830249429       -1.9433095252        2.8289252625
 O         -6.8902954102        1.7515645093       -0.2424645644
 H         -7.7500155347        1.2905560119       -0.2519704871
 H         -6.9524652707        2.4872994294       -0.8558978708
 O          2.8090008585        4.7751165866        0.7367249464
 H          3.6659217172        4.6355333958        0.3264717195
 H          2.8438920328        4.3769692994        1.6188352952
 O         -6.3958910027       -0.5450383918        1.7186038091
 H         -6.9420149701        0.2200402092        1.9213083639
 H         -5.5147497014       -0.1410306036        1.5057277643
 O          7.5307341702        0.2040356741        0.8714059223
 H          7.5068984531       -0.7505204782        0.6684783006
 H          7.8265706089        0.2784405245        1.7968978247
 O         -9.0231499487        0.0874217808       -0.3590110091
 H         -8.5749564499       -0.7735662474       -0.4641063169
 H         -9.7964956559       -0.0654495309        0.1828164202
 O         -0.4124144907       -3.7762448139        4.0715824048
 H          0.5293961148       -3.9462228224        3.9463581235
 H         -0.8710010765       -4.1797603632        3.3251775994
 O          4.0918872344       -0.9205916348       -3.7073680161
 H          5.0188953172       -0.9839387548       -3.9664935358
 H          3.6191913403       -1.6827147805       -4.1036346390
 O          2.8044108981       -3.1203276968       -4.5480920427
 H          3.0400820216       -3.7192278243       -3.8246863923
 H          1.8426307595       -3.1029230530       -4.5846366187
 O          2.9487394533        0.4823022992        4.1028213384
 H          2.6249006192        0.5333971974        5.0014144806
 H          2.8051852604        1.3657198343        3.6935835333
 O          7.4765177845        0.3534156232        3.5596077131
 H          7.1771007976       -0.4066196093        4.0606057305
 H          6.8933768661        1.0892772194        3.7943244329
 O         -4.6399539842        0.3351620912        4.4470671647
 H         -4.8036047351       -0.5754054110        4.1390110497
 H         -4.7697619968        0.3192705131        5.3937546070
 O         -4.6434943648       -4.3794908922        1.9790954861
 H         -3.7117976927       -4.6278031080        1.9963867511
 H         -4.9169210376       -4.3951173229        1.0481327172
 O          4.7910871045       -2.6421508682        2.2864377657
 H          5.5915042070       -2.7625961382        1.7445752260
 H          4.7202996222       -1.6704815572        2.3713807384
 O          6.1300199429       -3.4975991286       -2.1053351463
 H          5.2669407698       -3.8475802153       -2.3426169250
 H          6.2874147619       -2.7109413367       -2.6486961163
 O          6.8067777082       -1.0057409917       -3.3085388234
 H          7.7273390469       -1.0460448308       -3.5656062069
 H          6.7167489890       -0.2466742119       -2.6974576665
 O         -6.1968683849        2.0858085818        2.8614414417
 H         -5.5939478450        1.5195428179        3.3722026547
 H         -6.5463696866        2.7379221303        3.4671522350
