  301

 H         -0.0000000000       -0.0000000000       -0.0000000000
 O          0.8235376394        0.8090914744        0.9039096192
 H          0.4945642660        1.6931008955        1.1749489510
 H          1.7174486953        0.9350289507        0.5256757624
 O          3.3316071209        1.3215370142        0.0898073458
 H          3.3562949687        1.7646595886       -0.7847154507
 H          4.1618020123        0.8299106026        0.2031213959
 O         -2.5354064271        2.1936492575        0.9928712862
 H         -3.0358872673        3.0048108999        1.1845373516
 H         -1.9259091111        2.3724189778        0.2481065808
 O          3.0773032794       -1.3976853267        0.8567934337
 H          2.4314344005       -2.0922844846        1.0779368478
 H          3.9506237886       -1.8167398105        0.9812294146
 O          3.4658280255        0.4530104937        2.7847491590
 H          3.2547799462       -0.1497537870        2.0418274362
 H          4.0076211591       -0.0574283920        3.4069711581
 O         -0.5258517244       -0.6580991688       -0.6017512781
 H         -0.4153611402       -1.6019767374       -0.2178682105
 H         -1.5070580510       -0.4037305948       -0.6273281085
 O          0.5885890156       -1.4744011369        2.4211994185
 H          1.1599756738       -1.5411479705        3.2053226935
 H          0.7571817826       -0.6067680651        2.0273663293
 O         -2.2589808962       -1.3302835111        1.4522050534
 H         -1.8657276436       -0.5644656072        1.9219431979
 H         -3.1732030478       -1.3961466393        1.7654153386
 O         -0.8397643142        2.4536364599       -1.0428485604
 H         -0.4210020972        1.6953792502       -1.4690230420
 H         -0.0569536628        3.0029866867       -0.7797365363
 O          1.1605053341        0.8079509693       -1.9689267580
 H          1.8125356158        0.0833132253       -1.8925428461
 H          1.6928969644        1.6053291557       -2.1175639374
 O          2.1912662980       -1.6269636989        4.5743815570
 H          2.5496763515       -0.8566701517        5.0528279624
 H          1.6670536178       -2.1688600189        5.2041414618
 O          2.7692595113        3.1152911592        1.9771823176
 H          2.9780176564        2.4644335066        1.2730436038
 H          1.8042993059        3.2553965872        1.9521392021
 O          1.0725894810       -2.9212061598       -1.8027513914
 H          1.3514487234       -3.8445894073       -1.8476974147
 H          0.1050844179       -2.9114277086       -1.8730193273
 O         -0.3468664652       -2.9469523324        0.4904253037
 H          0.0399174650       -2.5614504918        1.3137665400
 H         -1.3063960433       -3.0642996554        0.6231586617
 O          1.0740772678        1.2327032812        3.7574539740
 H          1.9585474036        1.0028289470        3.4057302208
 H          1.0924450411        2.1680866229        4.0392832969
 O         -2.9412791590        0.0071762367       -1.0363531991
 H         -3.1934532582        0.9524680040       -1.0559499962
 H         -3.0666700485       -0.3181933363       -1.9530989170
 O         -2.9322217072       -3.6501479102        0.1888557761
 H         -3.0871359749       -4.2019876917        0.9840881577
 H         -3.6629687577       -2.9947634585        0.1896963175
 O         -1.6359933276       -2.5839479710       -2.2608832832
 H         -2.1021332868       -2.9369888901       -3.0328738977
 H         -2.1359334776       -2.8337099034       -1.4767369782
 O         -0.7566328618       -0.2313384822       -3.4328562830
 H         -0.0046749094        0.1271970774       -2.9076755622
 H         -1.0356278138       -1.0497375808       -2.9952693510
 O         -1.3869089362        0.6664077591        2.8769170393
 H         -1.7645621679        1.3827875624        2.3328850695
 H         -0.4636373787        0.9050044908        3.0850489116
 O          3.8969801449       -3.3529601742        3.5350940605
 H          3.3216919101       -3.5707641030        2.7657088995
 H          3.2953643214       -2.7782310382        4.0608751112
 O         -4.7370648958       -1.7198782858        2.5815584900
 H         -4.9608811477       -0.8981999821        2.1089087151
 H         -5.1632019721       -2.4469371860        2.0875830610
 O         -4.6719852512        0.6702208822        1.4119511220
 H         -5.2939534279        1.3214897492        1.0263766809
 H         -3.7887228301        0.9710611292        1.1209488179
 O         -3.2463161411       -5.1402171816       -1.9996117482
 H         -3.9200589425       -4.5958563905       -2.4317174789
 H         -3.0300103505       -4.6449817598       -1.1784469322
 O          2.1669233594       -5.4680541431       -2.3086838610
 H          1.2758982024       -5.8075131004       -2.4791723399
 H          2.4849722566       -5.9185651536       -1.5136991064
 O         -1.5386612313       -3.0675551736        3.3046687109
 H         -1.5530963222       -2.5242942941        4.1151564855
 H         -1.6812289431       -2.4211860018        2.5744435593
 O          5.7205919373       -0.0419408282        0.6203420514
 H          5.7523735498       -0.9580717738        0.9283007299
 H          6.0251423924        0.5114566320        1.3444145417
 O          2.1524494889       -3.7716299380        1.5658770504
 H          1.4877160608       -4.1000563639        2.2113107100
 H          2.3867274523       -4.5252992097        1.0024604953
 O          5.4455414852       -2.6276080884        1.4424334953
 H          5.0905574700       -2.9123660322        2.3040493617
 H          5.4005061740       -3.4344268478        0.8817222312
 O         -3.9175754011        2.4254834062       -1.6556349545
 H         -3.3516764541        2.3477825381       -2.4551911724
 H         -3.7501752526        3.3251980467       -1.3089478947
 O          1.3723437691        3.7745692667       -0.6448856260
 H          1.6568882793        4.1476067095       -1.4907627330
 H          1.3406730411        4.5233349720       -0.0233459841
 O          0.5039257507       -4.7524144690        3.4099760632
 H         -0.1813605991       -4.0463404901        3.4136708115
 H          0.0192068786       -5.5477612465        3.0852545837
 O          3.1617662374       -0.9712830848       -1.7571931252
 H          3.0843454053       -1.0608866675       -0.7802030152
 H          3.9460377679       -0.4050630192       -1.9255274810
 O         -1.6798633459       -0.9776831289        4.9760697789
 H         -0.9442845989       -0.7568339994        5.5659195792
 H         -1.5879893931       -0.3575074152        4.2247543695
 O         -4.1686728366        1.9831167844        3.7396239135
 H         -4.2628642751        1.3282130189        4.4493758771
 H         -4.3589875799        1.4800826951        2.9227821367
 O         -4.3229180791       -0.4206138883        5.0616591110
 H         -4.6985796710       -0.8028087499        4.2584977727
 H         -3.3893120692       -0.7154951062        5.0779262647
 O         -2.4837522285        1.7616509604       -3.7507828450
 H         -2.0231397447        2.3803369903       -4.3512408228
 H         -1.8669220335        1.0155839291       -3.5953097935
 O          4.6528175812        4.6671382012       -1.2427692441
 H          4.4566775679        5.0543597526       -0.3731786506
 H          5.3251384565        3.9892357984       -1.0637711901
 O          1.8955013127        0.7248715212       -4.6674185200
 H          1.6478448251       -0.1471527875       -4.3140706782
 H          2.7988910130        0.6047385399       -5.0036070950
 O         -0.6914013775        0.2051739992       -6.0908445718
 H         -0.5654609644        0.0347153467       -5.1348240876
 H          0.0523542133       -0.2302651211       -6.5405476015
 O          0.0532014158        3.1900249933        1.8728814484
 H         -0.5202002189        3.1819794463        2.6628836344
 H         -0.3314089922        3.8539505792        1.2742805958
 O         -1.2457557831        5.0401343225        0.3695148803
 H         -0.7027068344        5.6429439227       -0.1631367401
 H         -2.1040894429        4.9699463958       -0.0913832333
 O          0.0076313223       -5.5488624269       -0.0239953885
 H         -0.0076492407       -4.5877376858        0.1815320787
 H         -0.2836561555       -5.6225575053       -0.9462966155
 O          1.6138772660       -1.8758391427       -4.0994070607
 H          1.4877931263       -2.1081742630       -3.1418736608
 H          2.5426341286       -2.1228908314       -4.3082746778
 O         -0.0387222567       -3.8840723803       -4.8021396480
 H          0.4444166427       -3.0751262599       -4.5345208455
 H         -0.9629222716       -3.6274803094       -4.9498464689
 O         -4.8023497098       -1.7706180092       -0.2671451781
 H         -4.9686070941       -2.2319908991       -1.1064560289
 H         -4.1340736338       -1.0736498876       -0.4368602520
 O         -3.8184696167       -0.8852516496       -3.3602786998
 H         -4.5733563909       -0.2433222382       -3.3091582636
 H         -3.4668635605       -0.8436636620       -4.2712138932
 O         -1.0598303748        4.4943491706       -2.7985182663
 H         -1.2182655051        3.7951190938       -2.1365131156
 H         -0.3100291849        4.1558064821       -3.3110601700
 O         -0.5882690687       -5.4878403098       -2.6834797216
 H         -0.4058985802       -4.9360137710       -3.4713401237
 H         -1.5552738477       -5.5167014052       -2.5957177140
 O         -3.0989109563       -0.9382436495       -5.9657237067
 H         -2.2220964172       -0.5358020276       -6.1494107191
 H         -3.7395438111       -0.2136122302       -6.0989085530
 O         -5.0051154590       -3.0981920211       -2.6771724638
 H         -5.8866616887       -3.0771993986       -3.0471747182
 H         -4.5152037489       -2.3150485185       -3.0438497533
 O         -3.6652518713        4.9130467842       -0.8015158677
 H         -4.3130924891        5.4011157319       -0.2932595461
 H         -3.6363133149        5.3094916470       -1.7249077960
 O         -6.8997504002       -0.0519258382       -0.7602570650
 H         -6.2207873943       -0.6185226623       -0.3496721391
 H         -6.9949413636        0.7337087677       -0.2146256161
 O          0.9125115336        3.0859518966       -3.9533634853
 H          1.7062793627        3.5856741994       -4.2243057034
 H          1.1977399810        2.1547666643       -4.0095355400
 O          0.4758482438        0.2586732904        6.1345353597
 H          1.2869419633        0.2111003207        6.6448094259
 H          0.7542086020        0.5217887872        5.2214324492
 O          5.5278002692        2.1513268985        2.2803502722
 H          4.6997880313        1.6471183872        2.4429585808
 H          5.5469791826        2.8435609672        2.9424603229
 O          5.0214265921       -4.7099392446       -0.1120038879
 H          4.7328313418       -4.2958429584       -0.9457782359
 H          4.3617615753       -5.3766891039        0.1070222566
 O         -4.2936680628        4.1282693178        1.9334899078
 H         -3.7240405280        4.8622342560        2.2414685402
 H         -4.4737047147        3.6027259302        2.7247213868
 O         -1.7649436397        3.2227455479        3.8920704588
 H         -1.4440482018        3.0380603197        4.7996336673
 H         -2.6247770257        2.7603601673        3.8279571790
 O         -0.9342251845        2.5771125606        6.3531311241
 H         -0.3970011786        1.7591545341        6.3523746253
 H         -1.7747304888        2.2983149739        6.7498633861
 O          3.9509747400        5.3696681568        1.2790038019
 H          3.5841087715        4.4742144149        1.4787176603
 H          4.0637232949        5.7568648385        2.1661931829
 O          3.5728612059        2.9361487041        4.5445501864
 H          2.7434525842        3.2454676760        4.9488337868
 H          3.3540880986        2.8886073045        3.5892172765
 O          1.0585881002        3.7005509160        4.8560504592
 H          0.4262476437        3.6224452165        5.5795698626
 H          0.8262352634        4.5113631415        4.3500183066
 O         -5.9953656868        2.6410912163        0.2519083934
 H         -5.6387793288        3.3432067090        0.8162240006
 H         -5.4647488021        2.6652291883       -0.5555343458
 O          3.3721839701        0.5009968276        5.7836973571
 H          4.2533546187        0.1199743049        5.7985217149
 H          3.4736692277        1.3740727081        5.3482956394
 O          0.5396407400        5.9073875584        3.4826557925
 H          0.8244189093        5.9351449995        2.5476252071
 H         -0.4035685617        6.1255063159        3.4746624502
 O         -2.2086978039        5.6458833919        2.8228456376
 H         -1.7964607708        5.5365964847        1.9438227057
 H         -2.0266254392        4.8194065609        3.3149572253
 O          0.2055791198        6.5038634583       -1.5124922191
 H         -0.3757889331        5.9477510926       -2.0654289318
 H          1.0714560261        6.4010127325       -1.9349996176
 O         -3.1716658677       -4.9601570104        2.5214732734
 H         -4.0122254559       -4.9206563439        2.9843205228
 H         -2.6002729858       -4.2768669609        2.9554806754
 O         -5.7460881492        0.8467331334       -2.9833690389
 H         -6.3228123766        0.4931656029       -2.2712046555
 H         -5.2386017187        1.5630152699       -2.5665842974
 O          4.0916097269       -3.3739434910       -2.2835604772
 H          3.3881709840       -4.0191462298       -2.4295856683
 H          3.6475301442       -2.5102739274       -2.0640001358
 O          0.8319800644       -3.4450236604        5.8892377366
 H          0.9058499018       -4.0882068912        5.1699361563
 H         -0.1097075041       -3.4465201842        6.1198963783
 O         -0.9900870625       -6.6089052364        2.2774411982
 H         -1.8600497786       -6.1964541567        2.3924802227
 H         -0.7076088608       -6.3988725770        1.3706677201
 O          2.5868596458       -6.1830729778        0.3534719660
 H          2.8021909022       -6.4779998876        1.2578489736
 H          1.6081299568       -6.1826482439        0.2992991745
 O          3.0053522997       -6.1431036051        3.0386522852
 H          2.1527996324       -5.9072663501        3.4221858423
 H          3.6397977175       -5.5173377476        3.4039234436
 O          5.3156579793       -0.9979117425        4.2340078587
 H          6.2380097130       -1.0124908874        3.9799738443
 H          4.9823197292       -1.9042800209        4.1502905970
 O         -4.2105178974       -3.3955194231        4.7127450134
 H         -4.6944585364       -2.9524467611        5.4111014385
 H         -4.2888667136       -2.8236969334        3.9332702501
 O         -3.4146671271        5.7193071709       -3.2264937866
 H         -2.4661835500        5.5084672193       -3.2404672471
 H         -3.7735428186        5.1814018630       -3.9512537977
 O          2.4795436327        5.4682076705       -2.6889407616
 H          3.3295938160        5.4351419493       -2.2272819056
 H          2.6850570788        5.2735288303       -3.6116545340
 O          1.4197104594        5.9939141467        0.9294991522
 H          2.4024432792        5.9725224117        0.9958754295
 H          1.1666515608        6.6474711548        0.2693649204
 O         -4.5227963025        1.2711479504       -5.4475293931
 H         -5.3235223994        1.2098203964       -4.9163579868
 H         -3.7995966417        1.4562530299       -4.8065653464
 O         -2.6971066765       -3.3071909536       -4.7586710588
 H         -3.3099117811       -3.9868165167       -5.0379878559
 H         -2.8834032429       -2.5080502015       -5.2900131253
 O         -1.0555628322        2.8956770637       -5.7410239152
 H         -0.2907158221        3.0638543836       -5.1477399098
 H         -0.9606972644        1.9803048020       -6.0580064527
 O          3.2614850633        2.5294323295       -2.2768214369
 H          3.6600441006        3.3641225800       -1.9763477591
 H          3.7728485971        2.2482657588       -3.0528053140
 O          5.4335299728        0.4264364642       -2.1375406583
 H          5.6718589455        1.0697406115       -1.4501627146
 H          5.9809170973       -0.3651164851       -1.9760348105
 O          6.5178237666       -2.0092096255       -1.6445745572
 H          5.8449472903       -2.6353640170       -1.9351960046
 H          6.7352019809       -2.2400828134       -0.7395915171
 O          4.9050189529        1.8810580329       -4.3642780054
 H          4.7837407811        1.2851371217       -5.1149674642
 H          5.3412915694        1.3463057097       -3.6775955443
 O          6.1219486073        2.5509452018       -0.3632539056
 H          5.8342334920        2.4792674011        0.5704328094
 H          7.0778141744        2.5762733729       -0.3543215129
 O          4.0138595390       -2.6969804585       -4.9054631041
 H          3.6255167903       -3.5473881198       -5.1991223591
 H          4.4514235346       -2.8947385897       -4.0623717226
 O          4.0473970665       -0.1833284338       -6.0127359622
 H          4.2172320477       -1.0797055583       -5.6797289751
 H          3.4795358737       -0.2841900477       -6.7823546475
 O          3.1714040863        4.0484656669       -5.0450786439
 H          3.9349284165        3.4967375672       -4.8263414852
 H          2.8079707050        3.6655165092       -5.8656994873
 O          2.5290101565       -4.9066203702       -5.0888888308
 H          2.6049851814       -5.3399532649       -4.2307875010
 H          1.5879896120       -4.7142330203       -5.2006907129
 O          1.4021526435       -1.3738636666       -6.8281127703
 H          1.4916583727       -1.6024268462       -5.8902541643
 H          1.2744647562       -2.1959785971       -7.2997102076
 O         -4.6652490766       -6.0664425365        0.2093804256
 H         -4.2512149394       -6.0062142849       -0.6667083452
 H         -4.0143399528       -6.4427796966        0.8050029449
 O         -3.6593786924        3.9729196233       -5.2968271954
 H         -2.7634409944        3.8760399284       -5.6429155739
 H         -4.1514444072        3.2049293462       -5.6106982077
 O         -5.7802798364       -3.8734940788        1.3483981788
 H         -6.5612820428       -3.6560982033        0.8413736622
 H         -5.4101425540       -4.6876781961        0.9521601441
 O          3.4952876718        5.7424191448        3.8722425285
 H          2.5508765940        5.9224259879        3.9387071482
 H          3.6456571150        4.8761668189        4.2738549758
 O         -2.9522998146        0.9421387777        7.0712887031
 H         -2.4196631233        0.1612712870        7.2388894479
 H         -3.7112863887        0.6442196808        6.5588579388
 O          1.7566013443        2.5202603158       -6.8155638540
 H          0.8751338981        2.8579367032       -6.9921409555
 H          1.6552394866        1.7794078985       -6.1978272788
 O         -1.8315374312       -4.0599796915        5.9107397102
 H         -2.6802607327       -3.7842686842        5.5237726088
 H         -1.7124995196       -4.9750478678        5.6545597534
