 xtb: 6.5.1 (579679a)
          10122201323D

 16 15  0     0  0            999 V2000
    1.6826   -1.8059   -0.3736 h   0  0  0  0  0  0  0  0  0  0  0  0
    1.7506   -0.7856   -0.0014 c   0  0  0  0  0  0  0  0  0  0  0  0
    1.9011   -0.8227    1.0756 h   0  0  0  0  0  0  0  0  0  0  0  0
    2.6197   -0.3129   -0.4531 h   0  0  0  0  0  0  0  0  0  0  0  0
    0.4861    0.0015   -0.3332 c   0  0  0  0  0  0  0  0  0  0  0  0
    0.3486    0.0027   -1.4212 h   0  0  0  0  0  0  0  0  0  0  0  0
   -0.7414   -0.6649    0.2967 c   0  0  0  0  0  0  0  0  0  0  0  0
   -0.6710   -0.5949    1.3862 h   0  0  0  0  0  0  0  0  0  0  0  0
   -0.7449   -1.7363    0.0278 h   0  0  0  0  0  0  0  0  0  0  0  0
    0.6039    1.4462    0.1422 c   0  0  0  0  0  0  0  0  0  0  0  0
    0.8167    1.4740    1.2086 h   0  0  0  0  0  0  0  0  0  0  0  0
   -0.3316    1.9683   -0.0361 h   0  0  0  0  0  0  0  0  0  0  0  0
    1.4050    1.9597   -0.3844 h   0  0  0  0  0  0  0  0  0  0  0  0
   -1.9571    0.0249   -0.1074 n   0  0  0  0  0  0  0  0  0  0  0  0
   -2.0782   -0.0452   -1.1128 h   0  0  0  0  0  0  0  0  0  0  0  0
   -2.7666   -0.3994    0.3317 h   0  0  0  0  0  0  0  0  0  0  0  0
  1  2  1  0  0  0  0
  2  3  1  0  0  0  0
  2  4  1  0  0  0  0
  2  5  1  0  0  0  0
  5  6  1  0  0  0  0
  5  7  1  0  0  0  0
  7  8  1  0  0  0  0
  7  9  1  0  0  0  0
  5 10  1  0  0  0  0
 10 11  1  0  0  0  0
 10 12  1  0  0  0  0
 10 13  1  0  0  0  0
  7 14  1  0  0  0  0
 14 15  1  0  0  0  0
 14 16  1  0  0  0  0
M  END
