  222

 H         -0.5425054112       -1.1597996585        0.9180873602
 C         -0.6112510051       -0.5412956740        0.0100749184
 H         -0.5391308395       -1.1969144470       -0.8712436599
 C          0.5103658647        0.5037878335       -0.0094871839
 H          0.3911098457        1.1518924073        0.8600966291
 H          0.3944399221        1.1152669956       -0.9056411627
 O         -1.7891825170        0.2100258092       -0.0077307041
 H         -2.5646581753       -0.3620747642        0.0026734603
 N          1.8637421187       -0.1172780948        0.0059475208
 H          1.9871272141       -0.7237037740       -0.8163106223
 H          1.9839787968       -0.6890763205        0.8531041601
 H          2.5930828886        0.6072400317       -0.0077051378
 O          3.6309822239        2.3664717420        2.5797686889
 H          3.8138979588        1.4295833582        2.7736882206
 H          2.6775810540        2.4975107060        2.7404281702
 O          1.5584265840       -0.8909424961        2.5749726806
 H          0.8178810072       -0.3054475495        2.8016385894
 H          1.1836906054       -1.7871627102        2.5167072625
 O          0.9915070939        2.5907599053        2.8877302719
 H          0.9084905685        2.1581922463        3.7621571383
 H          0.1307412169        2.5011590682        2.4419885858
 O         -2.6426532878       -3.1782115879        1.6299846069
 H         -2.8350583255       -2.2145634198        1.6929770897
 H         -3.5179889603       -3.5967179976        1.5301446127
 O          1.8693745925       -1.6804072411       -2.1360943974
 H          1.9677222685       -0.9089803583       -2.7272162764
 H          1.0104045309       -2.0807711822       -2.3507822663
 O          2.3592852752        3.0662280676       -1.9384963116
 H          1.4856766449        3.3155215933       -1.5684107314
 H          2.8305511947        2.6351334892       -1.1952745001
 O          0.0896040231       -3.1538351503        2.0531157192
 H          0.3399286327       -3.5090794786        1.1710900219
 H         -0.8718537171       -3.2340232493        2.0919696089
 O         -1.3796143030        2.6479775362        1.3568380600
 H         -1.6741788133        1.7705020774        1.0658655703
 H         -0.8431471032        3.0010699211        0.6071781922
 O          3.7347470545        1.8195097814       -0.0290256129
 H          4.6600722769        1.7288051640       -0.3282386960
 H          3.7496402543        2.1566296565        0.8903038487
 O         -2.0386261878       -3.9414931743       -0.9233543546
 H         -2.9257056608       -4.1026225073       -1.2649039655
 H         -2.1698495294       -3.6062169456       -0.0134107470
 O         -3.8995334144       -1.3661272963       -0.4304691835
 H         -4.1392108000       -2.2495366637       -0.7731819179
 H         -4.7262517517       -0.8438598120       -0.4095540445
 O          3.6910180433       -3.8170871863       -2.0751008350
 H          3.1476417786       -3.0105337150       -2.0603740471
 H          4.4643271711       -3.6480458983       -1.5171584928
 O         -0.6458181034        1.0498075392       -2.8963653848
 H         -1.4260537588        0.4835368242       -2.7578325609
 H         -0.1002987004        0.5544334657       -3.5354455852
 O         -4.3011629394        1.4816629230        1.3120786253
 H         -4.1979745932        2.1330895307        2.0464134834
 H         -3.9473829897        1.8872493817        0.4961239151
 O          0.1292844102        3.6695823113       -0.5754736494
 H          0.5519995806        4.2969018898        0.0613949524
 H         -0.5764541928        4.1580498786       -1.0562766852
 O         -2.9236842116       -0.3853457115       -2.7131754742
 H         -3.2821850432       -0.6826816363       -1.8500342008
 H         -2.9494540169       -1.1847619509       -3.2766162130
 O         -2.0540318083        4.5849742828       -1.7622338016
 H         -1.9338531427        4.3746576794       -2.7002601841
 H         -2.5848711296        3.8397130527       -1.4247214963
 O          2.6781628883       -2.6257575033        0.6052892281
 H          2.0204881291       -3.0165492215        0.0188675900
 H          3.0326713411       -3.3610057090        1.1478038529
 O          0.6171782769       -4.1283692964       -0.3735242771
 H         -0.2414941218       -4.4761786026       -0.6343550603
 H          1.2656939510       -4.8746346778       -0.4074279817
 O          2.6677317228       -5.7322217274       -0.4484122461
 H          3.1357890444       -5.6601883878        0.3903406691
 H          3.1458747378       -5.1679241038       -1.0905851669
 O         -0.5579047705       -2.8688339050       -2.9588734167
 H         -0.9691103367       -3.2690839121       -2.1713567749
 H          0.0963994447       -3.5127815507       -3.3156653272
 O          4.5043730350       -0.9502053192       -0.2079868184
 H          5.4348435921       -1.2270738772       -0.1058166772
 H          3.9540427121       -1.7449971979       -0.0286246107
 O         -3.2502600893        2.2493365921       -1.0343760758
 H         -3.9494185804        2.0576342805       -1.6710747567
 H         -2.5540190445        1.5829778917       -1.1294178144
 O         -3.1770438086       -0.6859716903        2.3048977275
 H         -3.6188195871        0.0740013441        1.8718345974
 H         -3.7658735550       -0.9618243672        3.0436760690
 O         -4.7482088728       -3.6638008199       -1.5632483990
 H         -5.0608518094       -4.0334152145       -0.7219037574
 H         -5.5191108106       -3.1773003047       -1.9482149460
 O         -6.0674944667        0.0719759700       -0.8157464218
 H         -6.5685933250        0.2968136666       -0.0177953108
 H         -5.9224595706        0.8874708609       -1.3368385312
 O          4.6338776361       -0.6315591135       -2.9100731299
 H          4.4318197407       -0.7295093329       -1.9558434298
 H          4.5057148960        0.3207269860       -3.1139308990
 O         -3.8893644366        1.5064693659       -4.3415814587
 H         -3.4747085000        0.8154061954       -3.7844850962
 H         -3.2085853702        2.1951925231       -4.4392192023
 O         -6.6209324453       -2.0082173084       -2.4289297733
 H         -6.4702036894       -1.2348454312       -1.8477388368
 H         -6.2943576476       -1.7261627627       -3.3027525163
 O          4.6819878368        2.0644846708       -3.2998249114
 H          5.3271833753        2.2120954205       -2.5913804617
 H          3.9170463006        2.6055200366       -3.0741096324
 O          3.7365783229       -4.5955318341        2.0452016384
 H          2.9559805495       -4.8508464495        2.5985314607
 H          4.2670938696       -4.0271865067        2.6392588858
 O          7.2134048493       -0.3781953169       -2.3675872344
 H          6.3072153272       -0.6176205631       -2.6850121648
 H          7.7649038754       -0.2675498461       -3.1412537833
 O         -6.6925760644       -2.0216581426        1.9222222677
 H         -7.4048753770       -2.1812586704        1.2679717704
 H         -6.6373329543       -1.0537290758        1.9612179528
 O          4.1628040981       -0.2931821261        2.3892749597
 H          3.2424944942       -0.5639461720        2.5834939053
 H          4.2869184604       -0.4463076342        1.4221466697
 O          6.2432735290        1.8215200053       -1.0496554256
 H          6.9821122274        2.2090310854       -0.5643219370
 H          6.6165523213        1.0248225113       -1.4715904588
 O          7.1553307591       -1.0358040819        0.2948375820
 H          7.1043105758       -0.1990832037        0.7967669718
 H          7.4602345024       -0.8315556578       -0.6002176300
 O          5.0102346959       -2.6557329006        3.4383032045
 H          5.9109790577       -2.8548923423        3.1215179976
 H          4.7958589242       -1.7820275576        3.0574075618
 O         -5.1691417400       -4.0201928440        1.1363322510
 H         -5.6851965746       -3.2245473647        1.4199913907
 H         -5.5628894802       -4.7656365075        1.5889894981
 O         -6.7523650680        0.7263821149        1.7955151048
 H         -7.3465401751        1.4592361991        1.5662157718
 H         -5.8366983683        1.0484578885        1.6121078870
 O          6.7151219553        0.9986804981        2.0458581812
 H          5.9570782710        0.5624564789        2.4513072183
 H          6.4057865084        1.8852579086        1.7827626952
 O         -0.8944252480        0.3223438721        3.1717181738
 H         -0.7020005830       -0.2395181212        3.9486567204
 H         -1.7172517085       -0.0551532160        2.7901249136
 O         -5.8209543542        3.8183059879       -0.2541462184
 H         -4.9795434229        4.0069895982        0.1978709989
 H         -5.6183028829        3.4509515807       -1.1257674172
 O         -3.4108428207        4.4175787213        1.0089661565
 H         -2.6774293253        3.7819887995        1.1586191948
 H         -3.0621329452        5.0845005876        0.4136223987
 O          5.7859374673        3.5448897435        1.5346118058
 H          5.0004473458        3.3546736997        2.0814564253
 H          6.2444487023        4.2785766097        1.9435629829
 O          2.1328193939        0.7332533336       -3.2800841915
 H          2.0991741953        1.5988834707       -2.8265485724
 H          2.3415186083        0.9036957786       -4.1972827486
 O         -4.1804810386        3.0800552202        3.3955561248
 H         -4.1303538960        3.9393527986        2.9641968235
 H         -3.3083757625        2.9279117237        3.8300089355
 O          5.4761067699       -3.6558117316        0.0079261989
 H          6.3956163338       -3.7431927881        0.2645994589
 H          4.9688878675       -4.1382109546        0.6741509887
 O          2.9668397848       -1.8095479953       -4.7314250589
 H          3.5238766842       -1.9851475231       -5.4879024964
 H          3.5577275475       -1.4541887713       -4.0316474800
 O         -4.8604824353       -1.5063485841        4.1737062201
 H         -5.5938060333       -1.9166087260        3.7013601113
 H         -5.1942885300       -0.6291946314        4.4684852100
 O          1.3775668614        4.9716456513        1.3334869003
 H          1.4042616840        4.2933360361        2.0207028617
 H          2.2779487724        5.0534307581        0.9738922945
 O          3.7628279950        4.8434088625       -0.0257842106
 H          4.5690878173        4.3673991412        0.2118079580
 H          3.4809187004        4.5264588127       -0.8912003971
 O         -1.6906810118        3.1313647426       -4.1002147376
 H         -1.1360676396        3.3548059772       -4.8464339547
 H         -1.2294221151        2.3919867783       -3.6154782745
 O         -5.4072882968       -0.9569262629       -4.6079716656
 H         -4.6723568156       -1.5574864293       -4.7745534645
 H         -5.0705397615       -0.0648549656       -4.7583582493
 O         -0.0685892318       -1.3368690638        5.1050021513
 H          0.7295182001       -1.8465351451        4.9131258876
 H         -0.8241037299       -1.9526846364        5.0334216625
 O         -5.8163644365        0.9656962723        4.4067417812
 H         -6.3709325157        0.9134266738        3.6125358789
 H         -5.2624051882        1.7483112510        4.2907157963
 O         -1.7304991773        2.6127921145        4.3152170236
 H         -1.2275676370        3.3218760266        3.9075754959
 H         -1.4641183451        1.7826862090        3.8528893523
 O          1.5579443065       -4.1152226361       -3.9327920436
 H          2.1758100008       -4.5282039353       -3.3207099498
 H          2.0419386860       -3.3529365006       -4.2942086302
 O          8.6673235935        1.9073254419        0.2626825827
 H          9.5975061821        2.1226507499        0.3141214816
 H          8.3961713877        1.5707508281        1.1242448477
 O          1.6190989510       -4.7552677522        3.5968333065
 H          1.8884710879       -4.1452906568        4.2942643842
 H          0.9525351471       -4.2668080372        3.0780352662
 O          0.7247076667        1.4048046213        5.3257673956
 H          0.5746096058        0.4539701845        5.4193113462
 H         -0.0853440319        1.8325064365        5.6225280257
 O         -2.3002371144       -2.7632774602        4.4885029012
 H         -2.3900846735       -3.0896480774        3.5832941684
 H         -3.1552000478       -2.3762321096        4.7130841911
 O          0.2762272803       -0.7957793165       -4.7041673049
 H          1.1760797539       -1.1083684460       -4.8659139258
 H         -0.1851703888       -1.5293453199       -4.2810936076
 O         -5.6352123875        2.1505586364       -2.4908487639
 H         -6.5344055408        1.9426833928       -2.8236567718
 H         -5.0607972268        2.0191768279       -3.2833604620
 O         -8.0348075310        2.7195104787        0.5600161482
 H         -8.6031178913        3.4329300470        0.8465464728
 H         -7.1968966963        3.1525629444        0.2421811946
 O         -3.1443839340       -2.7437907914       -3.9414807185
 H         -2.2064874000       -2.9619718037       -3.7971007131
 H         -3.6565542982       -3.2957641656       -3.3398972003
 O         -8.3717654958       -2.1092707247       -0.1710327675
 H         -8.6549978883       -1.1937111659       -0.3141982102
 H         -7.9755591279       -2.3897892995       -1.0040856622
 O         -9.0341487235        0.5675578517       -0.7748233429
 H         -9.9879844146        0.6503921088       -0.7917342458
 H         -8.6915785379        1.3624729047       -0.3176832501
 O          2.6003141619       -2.4492146814        4.8700358511
 H          3.4384097895       -2.5922763094        4.4028405091
 H          2.8175595549       -1.9226877181        5.6396717275
 O         -7.8792886762        0.9686539256       -3.2542831397
 H         -7.6453932260        0.1691466947       -3.7316771288
 H         -8.3304025171        0.7003984133       -2.4353211041
 O          7.3759771644       -2.9586312434        2.1468819143
 H          8.2092248533       -2.8336794274        2.5988778477
 H          7.3258445023       -2.2664767105        1.4580660731
