  536

 H          0.4630931495        1.1941015901        0.8323460357
 C          0.5529033477        0.5095403965       -0.0251088192
 H          0.4633425265        1.0989797033       -0.9466439314
 C         -0.5779254403       -0.5149488387        0.0205339297
 H         -0.4518484427       -1.1270271160        0.9278117840
 H         -0.4840887695       -1.1748694443       -0.8448927960
 N         -1.8603253779        0.1647692845       -0.0623300062
 H         -2.6131004383       -0.5138497258       -0.0751524980
 H         -1.9956534680        0.7570082616        0.7508170887
 O          1.7808076430       -0.1833435235        0.0209864725
 H          2.5006892644        0.4507184174       -0.0567168583
 O          4.5927826568        0.8891942811       -0.1832957164
 H          4.4950029699        1.8382322358        0.0136998570
 H          4.6683654327        0.8217382618       -1.1533233596
 O          4.2146264893       -1.5370213709        0.8636761717
 H          3.4450561019       -1.7229213806        1.4120690820
 H          4.1975587730       -0.5892911388        0.6483846298
 O          1.8525613886       -2.9025023270        0.0021150392
 H          1.6772476030       -3.0758028264       -0.9402219044
 H          1.7411244490       -1.9429853278        0.0996674805
 O         -1.8640884971        2.4016369549       -1.5318361935
 H         -1.9604678193        1.4977582483       -1.1338865116
 H         -2.5697407406        2.9882680219       -1.1984537421
 O          0.6909946581        4.4669965640       -0.9428262748
 H          1.1276826999        4.1686426675       -0.1162247625
 H          1.4221460022        4.8331008792       -1.4640259060
 O          2.1368238684        3.7422488259        1.1465878213
 H          2.8761257013        3.2970317552        0.7136169009
 H          2.5237857123        4.5002202590        1.6478862039
 O         -0.9132760164        3.0884486682        1.0445373886
 H         -0.9462862545        2.9501076552        0.0863505713
 H         -0.4633808081        3.9447127480        1.1982540084
 O          0.3704974585        2.8668949563       -3.0551297626
 H          0.2922882549        3.5063477960       -3.7876375823
 H         -0.3657649165        3.0182135335       -2.4457903844
 O         -3.3323289544        4.4576417075       -0.6029791836
 H         -2.5853894409        5.0587423391       -0.7938547486
 H         -3.3300191040        4.2597445506        0.3636767808
 O          1.0553170504       -0.0532310117        3.5532316729
 H          0.4238412565       -0.7034302704        3.2162034184
 H          0.6989391116        0.8277443557        3.3480142746
 O          2.0679352643       -3.9718943502        5.1070779589
 H          1.6034631461       -4.7605237223        4.7784694886
 H          1.4591628526       -3.5547408179        5.7548213159
 O          2.4364448321       -0.2151018742       -2.7588857625
 H          2.6089377208        0.6238244306       -2.2770604504
 H          2.9326494733       -0.9319132462       -2.3186471703
 O          1.0938630056       -3.0902409124       -2.6024378246
 H          1.5709011147       -2.9695664777       -3.4433023325
 H          0.2533529655       -2.5958168876       -2.6537369881
 O          6.4353206931       -2.7472796877       -0.1675827418
 H          5.6422835277       -2.4148922638        0.2805641135
 H          6.1727809967       -3.5766186246       -0.6248016155
 O         -0.0108374496        0.3253656426       -3.5222746240
 H          0.7899573895       -0.0742973453       -3.1319042695
 H          0.1401226060        1.2941505340       -3.4374650196
 O         -3.9748748457       -1.8397357173       -1.3160388902
 H         -4.0287171384       -2.2609375105       -2.1943852636
 H         -4.1753307611       -0.9088806940       -1.4867897448
 O         -3.2822767084       -2.0809519342        1.4492777550
 H         -4.0670755875       -1.6743704332        1.0331180868
 H         -2.9195502546       -2.7163236790        0.7885767209
 O         -4.3269018524       -2.7186647853       -3.8000761163
 H         -4.6758383129       -1.8951020519       -4.1741969314
 H         -3.5956204095       -3.0099185408       -4.3601997102
 O         -1.3429750695       -1.2609902474        3.0849430154
 H         -1.5012604173       -0.2958317325        3.0738144002
 H         -2.0346635383       -1.6524919504        2.5189413103
 O         -1.4334592071       -2.3546460802       -2.5579284911
 H         -1.6929208349       -2.9596075353       -3.2781954819
 H         -1.9400619226       -1.5267052588       -2.7180277062
 O          2.6077090362        2.1677537744       -1.5492958639
 H          3.2184153006        2.6358105228       -2.1490604169
 H          1.7476523245        2.5143848145       -1.8287467015
 O         -2.2102706826       -3.6591040024       -0.3759156367
 H         -1.9501862582       -3.0489038593       -1.0987383556
 H         -1.3862664833       -3.9351312938        0.0936288668
 O         -4.4653503595        1.3994571549        0.9942300496
 H         -4.9630051344        2.2165261401        0.7986280957
 H         -4.2736921637        1.4646132947        1.9480029381
 O          0.9436703523        2.6217557200        3.1747137317
 H          0.4708846379        3.4085114117        3.4915087026
 H          1.4450508060        2.9130315748        2.3796963134
 O          6.9834508797        0.0738041370        0.5349791716
 H          6.8042187137       -0.6542413245        1.1600540502
 H          6.0982465684        0.4157678286        0.2642606531
 O          3.2003205046        1.0580981249        2.1733847985
 H          2.4871257772        0.5553860960        2.5918253104
 H          4.0351214967        0.6983795011        2.4920839464
 O          2.8535837742       -0.3757077678       -5.3405637304
 H          2.0423151617       -0.0873675730       -5.7970046158
 H          2.6941210877       -0.1950030344       -4.3813217387
 O         -6.7980970412       -2.1213300713       -1.4963416579
 H         -6.7315684921       -2.0935976600       -2.4659586900
 H         -6.9401611417       -3.0652676539       -1.2750767335
 O         -5.0252891652       -4.0395938911       -0.1096433491
 H         -4.3084706928       -4.5261200339        0.3415095052
 H         -4.6387157060       -3.2072512433       -0.4414290712
 O          6.2979363940        3.0806441640       -1.9722023142
 H          5.9179917869        2.2312598229       -2.2698973201
 H          6.9624306700        3.3100007570       -2.6434052247
 O          5.2908996260        0.7493488441       -2.7425072848
 H          5.8963084116       -0.0154364477       -2.6940031244
 H          5.1165570369        0.9200319197       -3.6925885409
 O         -1.4799895648        1.4017223862        3.1190542547
 H         -1.1404752088        1.9730368544        2.4113710631
 H         -2.4486677244        1.5846299388        3.2320512568
 O         -3.9757864415        1.7173052860        3.5922997214
 H         -4.1196623651        1.0637664589        4.3116319605
 H         -4.2097512540        2.6034814356        3.9313667015
 O         -2.6319443841       -5.5368935867       -2.2196828675
 H         -3.5548744713       -5.4424888424       -2.5422386530
 H         -2.5475829098       -4.8671714623       -1.5034164233
 O         -0.0971940860       -4.3732031721        0.9258751374
 H          0.0687315663       -5.2753054623        0.5673765724
 H          0.6782471532       -3.8273394676        0.6653187488
 O          4.6189673358        3.6063786552       -0.0280264483
 H          5.2862720812        3.5184399470       -0.7414470281
 H          4.9969403275        4.2256760695        0.6276593328
 O          6.6978515360       -1.7000384683        2.4922651150
 H          5.9832870903       -2.3781831764        2.3906248249
 H          7.4034655786       -2.1471764321        2.9887362765
 O          4.1447434576        3.3982391439        3.1746665032
 H          3.6271199289        2.6077386843        2.9381446647
 H          4.5631190054        3.2366313884        4.0378886941
 O          9.8516980679       -1.4576794214        2.6027931653
 H          9.6186759096       -1.8272470235        1.7246627194
 H          9.4068583410       -0.5855659553        2.5937848673
 O          5.5589616140        0.4026005217        3.4470356076
 H          5.9788834277       -0.4340962203        3.1295403964
 H          6.1843554080        0.7761856740        4.1002073151
 O          3.9074710508       -2.2286843353       -1.7706948731
 H          3.9364143491       -2.0816295015       -0.8077920915
 H          3.5742272142       -3.1326162266       -1.9095735186
 O          2.6734833164       -2.2922665997        3.1580862213
 H          2.7665826242       -1.4783561516        3.6814929981
 H          2.3177121183       -2.9464477797        3.8017918153
 O          2.4284258572       -5.0440454499        1.9968952612
 H          3.1283972708       -5.3942920047        2.5910026100
 H          2.5641564646       -4.1037620912        1.8440732498
 O         -1.9596368135       -3.8356459277       -4.7315864553
 H         -1.8936717635       -4.7905198485       -4.7434229730
 H         -1.2747244134       -3.4711632793       -5.3369819252
 O         -5.0485599333       -2.4332479912        3.3916411559
 H         -4.3566979143       -2.3328031849        2.7072192400
 H         -5.7037473274       -3.0481904355        3.0094187239
 O         -2.6248695069       -0.1348374601       -3.3951377979
 H         -2.7625629330       -0.4630247850       -4.3033600092
 H         -1.7168289990        0.2079129397       -3.3786673422
 O          8.6322867511        1.5081048543       -1.0488872620
 H          7.9476797677        0.9537068331       -0.6405700284
 H          8.6063383990        1.3342123787       -2.0106227296
 O         -2.5113971510        2.8100828908       -4.1025925566
 H         -2.3781415989        3.7740958428       -4.0115387855
 H         -2.3331974952        2.4327344798       -3.2180272050
 O         -6.0669308098        0.0378041718        3.8183242642
 H         -5.6799043196       -0.8522835225        3.6968875471
 H         -6.3158449737        0.3729057793        2.9433630431
 O         -0.8724767077        2.4287360107        5.5351871542
 H         -0.4106812758        1.6801554048        5.9638150170
 H         -1.0904990269        2.0819314164        4.6421024519
 O         -0.0287245938       -5.5403717190       -2.8170759652
 H          0.3166232039       -4.6381956784       -2.6453120171
 H         -1.0003309813       -5.5097118871       -2.7313281903
 O          6.2929212476        2.6046717715        1.9477179656
 H          6.2071116330        1.6928520648        2.2564303473
 H          5.4522376026        3.0315510617        2.2565377934
 O          3.5005854614       -0.3083283274        4.9410325562
 H          4.2745183106       -0.0478445120        4.3939415388
 H          3.0021041926        0.5285594555        5.0749292321
 O          0.2698413448        0.1043309408        6.1345781602
 H          0.6775526776       -0.0376855263        5.2521593032
 H         -0.5440317882       -0.4147828533        6.1300971308
 O         -3.2464496028        3.9286556459        1.9634348645
 H         -3.0715158452        4.6476174251        2.5954563140
 H         -2.3877035569        3.5071837188        1.7791976152
 O         -3.4802345905       -5.5984898075        1.5044214759
 H         -2.7368058025       -5.1645971466        1.9619334183
 H         -4.0593856391       -5.8883617485        2.2435511374
 O         -1.5765151972       -4.4690580072        3.1315629627
 H         -1.0358608463       -4.1643311519        2.3788008191
 H         -0.9898444301       -5.1009115335        3.5735122551
 O         -3.9146938235        0.0546566405        5.7022275936
 H         -4.6712595704       -0.5357487061        5.8779285046
 H         -3.1352375496       -0.5301998846        5.7273317304
 O          3.5436522240        3.4670298081       -3.6067935226
 H          4.4325286303        3.5870315826       -3.9807061908
 H          3.0420896992        2.9452161592       -4.2610925527
 O          4.9183467704       -3.5695755553        2.6091025820
 H          4.0917724356       -3.0900811347        2.8436222981
 H          5.2507735688       -3.9891003408        3.4281776011
 O          2.3787299776       -2.9808473956       -5.0202230706
 H          3.2532046743       -3.3996612842       -5.0324477624
 H          2.5550602037       -2.0481468566       -5.2813242788
 O          2.4554136398        2.1186837310        5.2810780030
 H          1.8927548326        2.2871574766        4.4853253498
 H          1.8726018930        2.0799511253        6.0394945349
 O         -1.8585077425       -1.7653355451        5.6090658719
 H         -2.4553437414       -2.5456313676        5.6015161037
 H         -1.6145421876       -1.6486316605        4.6557166188
 O         -3.3428008487        2.5792327271        6.6293857895
 H         -3.6426845246        1.6647373917        6.4837598058
 H         -2.4076129899        2.5883722634        6.3499273665
 O         -5.6577318443       -1.0082286025        0.7719203089
 H         -5.3883529096       -0.0691447906        0.7943495115
 H         -5.9155583556       -1.2685276725       -0.1286258376
 O         -5.7739432071        3.6505734345        0.3584768661
 H         -6.7039653616        3.8581794187        0.1617744931
 H         -5.5357172252        4.1878376636        1.1348422072
 O         -2.6622556788        5.7564243167        3.8776182145
 H         -3.2857465705        5.3929225382        4.5173033660
 H         -1.7686396151        5.5099630807        4.1771702646
 O         -0.1084996888       -2.6812388652       -6.2311396803
 H          0.7718089113       -2.9561055786       -5.9372417829
 H         -0.0325290738       -1.7099737067       -6.3171780205
 O          3.3296714158       -4.8429985951       -2.2831287365
 H          3.0539886853       -5.3992955414       -1.5039004830
 H          2.8400259032       -5.2251148319       -3.0414416607
 O         -7.2237559396        1.4465295035        1.7829794080
 H         -7.2430178571        1.3963725583        0.8084659923
 H         -7.2970697006        2.3894954974        2.0284137529
 O         -0.0928872220        5.5601223892        1.6611116994
 H          0.1010802065        5.5118230525        2.6040493984
 H         -0.8923655140        6.1136201405        1.5793506299
 O          8.7558969091        0.9752245312        2.3978267995
 H          8.1121221943        0.8391589237        1.6770767995
 H          9.1580538816        1.8635292126        2.2544291344
 O          3.1260895874        5.8916176029        2.3776586312
 H          4.0808712492        5.7927551565        2.2112843032
 H          2.8058844629        6.5913242063        1.7822747568
 O         -7.7849384406       -1.7717714972        2.1302045595
 H         -8.2811803767       -0.9775295957        2.3720527779
 H         -6.9838906834       -1.4883527886        1.6414309270
 O          5.6774427382        5.5336025378        1.5502755212
 H          6.4195443831        5.4009011963        2.1583694594
 H          6.0287016863        5.9316121349        0.7286514272
 O         -4.7297952934        0.7741382294       -1.5303267448
 H         -4.3177914638        0.9940424519       -0.6783095371
 H         -5.6965411888        0.7713887042       -1.3527349684
 O         -3.4711185927       -3.8103871134        4.9964810389
 H         -2.7912240697       -4.0979559220        4.3619838631
 H         -4.0999231181       -3.2660530262        4.4650179462
 O         -5.2872387880       -0.0633048136       -4.0406449949
 H         -4.6929105436        0.0943170271       -3.2936118613
 H         -5.0385070946        0.6132984619       -4.7019354847
 O         -2.0639789097        5.4555263665       -3.7489531870
 H         -1.8090534574        5.7286745113       -2.8560618272
 H         -3.0009054275        5.7071104220       -3.8458571601
 O         -6.4991997856       -4.2971559944        2.1185527471
 H         -7.4327209357       -4.4358446143        1.9493322392
 H         -6.0582615964       -4.2034000318        1.2459210685
 O          9.0853139344       -1.7193924042        0.0275839521
 H          9.7667910813       -1.0273931773       -0.0783277191
 H          8.2310604200       -1.2684228350        0.0191322458
 O          5.1627501702       -1.6866491865       -4.1015712891
 H          4.7526297310       -1.8605415981       -3.2400115329
 H          4.4652993196       -1.4138269576       -4.7059213758
 O          7.1346685736       -1.2257436176       -2.2555654851
 H          6.8452185766       -1.6684517292       -1.4312869478
 H          7.1499055137       -1.9568956158       -2.9101251920
 O          0.2718508214       -0.0258997821       -6.1028360231
 H          0.1146659448        0.0556519216       -5.1289695269
 H         -0.0963116920        0.7921703415       -6.4629362412
 O         -1.0159335088        2.3983123175       -6.2951967234
 H         -1.5299645406        2.4186016790       -5.4592900507
 H         -0.6366554017        3.2795475633       -6.3647595788
 O          3.1942967865        5.3799345648       -1.4031201350
 H          3.6462213211        4.6669459995       -0.9061333532
 H          3.8521114750        5.7007816756       -2.0379743493
 O         -4.6582609000        4.0024909699        4.8818106888
 H         -5.5726124374        3.7187405999        5.0294735542
 H         -4.1567346290        3.5831443549        5.6315768861
 O          5.7637268711       -5.1030077246       -1.1637896474
 H          5.6858444976       -5.5788808160       -0.3098335536
 H          4.8936538573       -5.1400996247       -1.5935440004
 O         -9.2609241231        0.4183257976        3.1087479551
 H         -8.9504128503        0.2759501328        4.0389999273
 H         -8.5556746007        0.9160266339        2.6367418708
 O         -7.2866242524        1.0982994517       -0.8762344683
 H         -7.9777320036        0.4033163931       -0.7587521116
 H         -7.6792865769        1.7937022698       -1.4203503646
 O         -8.9708878453       -0.9110613890       -0.6019362380
 H         -9.5315063908       -0.8297011223       -1.3925621708
 H         -8.2217031961       -1.4947714425       -0.8667426890
 O          8.7339105728        0.5209351576       -3.5378391263
 H          8.1983667746       -0.1727648751       -3.1046669644
 H          9.6735605749        0.2315354520       -3.4490373867
 O         -5.0946824821        3.2596510289       -2.2740275885
 H         -5.0642752325        3.6063552693       -1.3630944266
 H         -4.7854956931        2.3322804243       -2.2078648968
 O         -1.2949174667        6.1026628586       -1.1404483087
 H         -1.3744309577        6.7023737321       -0.3916736926
 H         -0.5204898728        5.4920100113       -0.9722538396
 O          7.9724012357        3.8003005749        0.1185910188
 H          7.2429603146        3.4819844594        0.6780870089
 H          8.1801423188        3.0403104685       -0.4642220413
 O          5.0143744035        1.2423338360       -5.3796188302
 H          4.2047819159        0.7273524626       -5.5607797574
 H          5.7691013340        0.6736646917       -5.6432325421
 O          4.4033028394       -2.7092412393        5.8384142113
 H          3.6544601771       -3.3227577311        5.7528018530
 H          4.0189565795       -1.8473413256        5.6011329668
 O          7.7258056259        1.1032334926        4.8511620622
 H          8.1919943049        1.0552020545        3.9894331752
 H          7.7202336085        0.2142685354        5.2309511141
 O         -2.8988302092       -1.1562934056       -5.9166206815
 H         -2.1854111744       -1.7107218697       -6.2388525376
 H         -2.9471941950       -0.3773052937       -6.5296163651
 O         -2.3367441761        7.0242542451        1.4049576168
 H         -2.5660498569        6.9201947802        2.3374531536
 H         -3.1945223484        7.0425936954        0.9323884151
 O          0.6494584605       -5.9043706407        3.7699618315
 H          0.8424776835       -6.8380089479        3.8407030757
 H          1.1413080477       -5.5880150688        2.9775877537
 O          7.0488068852       -0.4660296026       -5.6222040138
 H          6.5928115848       -1.0686324440       -5.0075617762
 H          7.7871427966       -0.0860337027       -5.1280208517
 O         -4.7498589770        6.6021721087        0.2416535151
 H         -5.1559138489        6.3134748642        1.0756538991
 H         -4.3760842549        5.7932169141       -0.1685077866
 O          6.5186421111        6.0121642481       -0.9314966120
 H          7.0202417946        5.1868044336       -0.9681747078
 H          6.0878978904        6.1203033813       -1.7879966985
 O         10.8208120387        0.2659573600       -0.2333627944
 H         11.3209926118        0.8332246849        0.3936629527
 H         10.0853055553        0.8503622766       -0.5366467473
 O          8.1820718243       -4.2412159460        1.3466365948
 H          8.9928907592       -4.3577870499        0.8068115517
 H          7.6562769191       -3.5773973064        0.8561209855
 O          7.4930591772        4.4623749678        3.4515366112
 H          7.1277138173        3.6895523049        2.9678719978
 H          7.0085670637        4.4928334668        4.2795136172
 O         11.1382890458       -0.3670423640       -2.8824567091
 H         11.2070973150       -0.1289594603       -1.9425009665
 H         10.8815463981       -1.3083407365       -2.8764775550
 O          6.9735470123       -1.4778134894        5.5511911805
 H          6.1224491261       -1.8902234320        5.7510947043
 H          7.5258946778       -2.1625967189        5.1564811804
 O         -5.1782114784       -5.0277027385       -2.6594191421
 H         -5.2817981089       -4.6624714150       -1.7579673680
 H         -5.1175818056       -4.2564855734       -3.2431125584
 O          7.4225262409       -3.3693795319       -3.8222434432
 H          6.5485117250       -3.5447568663       -4.1960427596
 H          7.6887117748       -4.1922136734       -3.3601326616
 O         -2.3942726547       -7.3948863619       -0.2398678666
 H         -2.7757320698       -6.8402031274        0.4645472590
 H         -2.5507686560       -6.9009832101       -1.0657018552
 O         -7.6999970484       -4.6015019123       -1.0354448003
 H         -7.1690442339       -5.4037769551       -0.8760452023
 H         -8.2304752530       -4.4484217632       -0.2284517036
 O          0.1988528069        4.5938931812       -5.1379613621
 H         -0.5677042350        5.0944703511       -4.8231729727
 H          0.9953826748        5.1506043160       -4.9300737870
 O          8.3920066236       -3.3419270979        3.8376499871
 H          8.3371655252       -3.8561262895        2.9947659439
 H          9.1747020871       -2.7815834345        3.7026934924
 O          0.1589089199       -6.6845866542       -0.3585291632
 H         -0.7134740360       -7.1197557192       -0.2234379138
 H          0.1388674512       -6.3679357357       -1.2837698499
 O          9.6786146558        3.4388744640        2.0803214888
 H          9.1572948667        3.6773671875        1.2729463898
 H          9.2600341864        3.9512095342        2.7855936781
 O          9.8200968065       -2.6804350840       -2.4170233388
 H          9.3454660561       -2.3450241012       -1.6298729408
 H          9.1542997927       -2.9151983134       -3.0721668623
 O         -5.6726139154        5.3528476215        2.5028208494
 H         -5.1367431650        5.0511299934        3.2452014929
 H         -6.5606448282        4.9788649117        2.6570892518
 O         -7.8228948711        3.8335841259        2.7914295812
 H         -7.7630952829        3.4621425550        3.6866499282
 H         -8.7771955969        3.9169854245        2.5442374608
 O         -6.9496906909        2.4457907591        4.9760354865
 H         -7.5324656858        2.0237079342        5.6127960904
 H         -6.4682921815        1.7116929086        4.5578285527
 O         -7.6330397327        3.1281457857       -2.8086601455
 H         -8.0746171394        3.8536029287       -2.3613833057
 H         -6.6606057860        3.2198586257       -2.6011889147
 O         -8.3017794974        4.3889217183       -0.2804463838
 H         -8.8399696099        3.5692403166       -0.3223633564
 H         -8.7024161997        4.9096544426        0.4206060709
 O        -10.2646871833        3.9359985498        1.8528914084
 H        -10.8038305919        3.3865875095        2.4688390463
 H        -10.3024975153        3.4363120206        1.0239820202
 O         -7.7946238387        0.6275527199       -3.9457834950
 H         -6.8489042513        0.3360176715       -3.8444220094
 H         -7.8238990775        1.5245436067       -3.5839268163
 O         -0.1738435989        4.7814042080        4.4254349658
 H          0.7456051071        5.0288924018        4.7078984287
 H         -0.4545813760        4.0829549980        5.0450861589
 O          5.7046946134        2.9415561749        5.3660473907
 H          6.5660282383        2.5199946633        5.2391917739
 H          5.2833813703        2.4010046941        6.0533969767
 O         -4.7584379155        5.5127669025       -3.6622539489
 H         -5.3815099289        6.0195379693       -3.1170995459
 H         -4.6886366792        4.6598333680       -3.1894549266
 O         -9.9723753160       -0.7365410701       -3.1313692513
 H         -9.1589866355       -0.3027766616       -3.4634692362
 H         -9.8695378350       -1.6831763428       -3.3042460074
 O          2.3710941409        5.0670224645        4.8903154480
 H          2.7729978399        4.2026174383        5.0454607968
 H          2.7494797716        5.3861489671        4.0515123502
 O         -9.1365893736       -3.7951049766        1.0590498902
 H         -8.6762969270       -2.9862426092        1.3848791910
 H         -9.8682294170       -3.4733839685        0.5036905797
 O         -9.8983328924        2.2448611606       -0.4164030337
 H        -10.6176658274        1.7118737747        0.0037039636
 H        -10.1497518590        2.2756781592       -1.3551174152
 O        -10.6798664941       -1.2426523549        1.5447341040
 H        -10.0887620793       -1.2498790097        0.7686787953
 H        -10.2304677513       -0.6864792564        2.2048356836
 O        -11.9429134218        0.8739083666        0.5631005982
 H        -11.5958852807        0.0565776017        0.9885699489
 H        -12.3583014124        0.5330781128       -0.2468410789
 O          1.8786323944        7.0236852462        0.2538428253
 H          2.4372633491        6.4308823644       -0.2939056309
 H          1.1735408749        6.4725071577        0.6308759870
 O          8.2108838330        3.2754697140       -3.8658037663
 H          8.8514290900        3.7969515852       -3.3309577261
 H          8.5486995620        2.3733347506       -3.9345995175
 O          9.7080396509        4.5456471218       -2.0962130628
 H         10.4495761435        3.9591332365       -1.8744755472
 H          9.2261166794        4.6934009378       -1.2771894400
 O         -8.1805396064       -0.1061092207        5.4350840816
 H         -7.2927301407       -0.1317005906        5.0165422564
 H         -8.3824325563       -1.0411060318        5.5794290689
 O         -7.9233175040       -2.7364218870        4.6904075613
 H         -7.6759062660       -2.4627856628        3.7888181626
 H         -8.8152322769       -3.1009829828        4.5729292138
 O          2.3361051563        5.8058560798       -4.2597166954
 H          2.7245870394        5.0059278458       -3.8435132479
 H          1.9349444890        6.3461390892       -3.5532823600
 O         -3.0840062817        0.9999316397       -7.3823055032
 H         -2.2746408456        1.5110134216       -7.2228655590
 H         -3.7730712235        1.4548601985       -6.8682668853
 O         -4.6935657511        2.0913237141       -5.4931717064
 H         -5.3438781323        2.8312695517       -5.4581698190
 H         -3.9261314042        2.3817412908       -4.9579825364
 O         -9.1756037940       -3.4866061064       -3.0018603341
 H         -8.4886541049       -3.1509449521       -3.6082955035
 H         -8.6687103279       -4.0654712393       -2.3992989107
 O         11.9464559538        2.0550682703        1.3576602144
 H         12.0816590789        1.5194332090        2.1615789504
 H         11.2555376112        2.6952213405        1.5973889097
 O          0.4559778505       -2.6889319860        6.7773008037
 H          0.8124773250       -1.8253399931        7.0087554690
 H         -0.4315678540       -2.5193541383        6.4112806227
 O          5.9274683858       -5.7690784684        1.3845663980
 H          6.8640746861       -5.5124830978        1.4357356551
 H          5.4484816941       -4.9670688835        1.6620838426
 O          2.0622484416        2.3923290975       -5.6000956711
 H          2.5465558811        2.5349007456       -6.4126976347
 H          1.3334875295        3.0236657031       -5.5788945618
 O          0.9812303409        7.2458485509       -2.3923648654
 H          1.3701409225        7.4409271337       -1.5253291811
 H          0.0545299811        7.0375728471       -2.2284428216
 O          5.0443216071        6.0269768135       -3.3808841274
 H          4.3092684379        6.3582709285       -3.9121215160
 H          5.4623195392        5.3460786393       -3.9273677141
 O          2.8452395813       -6.3968742454       -0.2740955285
 H          2.7765194404       -5.8882542653        0.5576335696
 H          1.9732921768       -6.8077202582       -0.3628455384
 O          5.8313160813        3.8238138616       -5.0185039633
 H          6.7567370115        3.7273252662       -4.7389613324
 H          5.5864557469        2.9550226170       -5.3780027910
 O         -6.4504034647        4.0373401326       -5.2091168419
 H         -5.8743346745        4.7301170670       -4.8335870096
 H         -7.0529547909        3.7801178640       -4.4977716167
 O         10.3220892378       -4.3820036585       -0.2777149075
 H         10.9972032613       -3.8525500437        0.1772914082
 H         10.2432648603       -3.9468298662       -1.1433767757
 O         -6.5941684248        6.1840135023       -1.7472572768
 H         -6.0120389847        6.5577401591       -1.0636476659
 H         -7.2434450265        5.6518508721       -1.2749506939
 O         11.9462029707       -2.3724550422        0.7863502281
 H         11.8781380680       -1.5747024396        0.2529878490
 H         11.6471200509       -2.1353555650        1.6685861847
 O        -10.4723816425        2.0931635397       -3.0681492595
 H         -9.9789030913        2.4466403637       -3.8092668601
 H        -10.5727984007        1.1460615526       -3.2169040715
 O         -7.1790999840       -2.2001031989       -4.2485183851
 H         -6.5373149518       -2.3757293938       -4.9715990159
 H         -7.5170497176       -1.3253669409       -4.4537952716
 O         -5.6694565024       -1.9752997065        6.1724379007
 H         -5.0931639553       -2.7380229874        6.2510056339
 H         -6.4547054110       -2.2832675524        5.6933901264
 O         -6.0619746498       -6.7199218492       -0.5241488828
 H         -5.3666946808       -6.6363586971        0.1341487219
 H         -5.6333607663       -6.7171335639       -1.3859362027
 O          4.8267871689       -4.3986039266       -4.5993577901
 H          4.6981240289       -5.2776961843       -4.9586211075
 H          4.5146723373       -4.4401980778       -3.6807045697
 O          2.0739417445       -5.7975090754       -4.4599343580
 H          1.2399249890       -5.9636065801       -3.9865788209
 H          1.9225693586       -5.0141610718       -4.9978923499
 O         -5.5482905096       -1.9888605219       -6.3381796224
 H         -4.6084698682       -1.7565290161       -6.2773328925
 H         -6.0050842593       -1.1746883385       -6.6103636761
 O          4.8455974776       -2.3213385378       -6.7502272496
 H          5.1094257305       -3.0295125814       -6.1544142502
 H          5.5989094120       -1.7287371158       -6.8060578667
 O        -11.5039040367        1.9918049059        3.1145212778
 H        -11.9795235754        1.6614294638        2.3410976124
 H        -10.7446380288        1.3918482578        3.2289253089
 O        -12.3348413590       -0.7788354954       -1.5421396630
 H        -11.7728656330       -0.6213949682       -2.3066047210
 H        -11.9659667135       -1.5693334338       -1.1174041936
 O        -10.9059813609       -3.1156253342       -0.9435771064
 H        -10.3148926256       -3.2128240211       -1.7169494652
 H        -11.5308560903       -3.8380081346       -0.9870479555
 O          4.2146258145       -6.3395053087        3.4826281604
 H          4.8126747572       -6.5682153908        2.7557562568
 H          4.7678933753       -5.9298449653        4.1578244559
 O          8.1644208982       -5.4442270066       -2.2986963146
 H          8.8418996456       -5.3856315610       -1.6203186780
 H          7.3054495858       -5.4700632202       -1.8385173991
 O        -10.3248308492       -3.3441631484        3.5168089923
 H        -10.7512333257       -2.5836874639        3.1038317845
 H         -9.9643507380       -3.8459654030        2.7709510657
 O          5.1734835986        0.7284278541        6.9114956853
 H          4.4590298321        0.2708421222        6.4439374343
 H          5.9531456744        0.1759474256        6.8236588737
 O         -4.9607478418       -5.9169581859        3.6877974565
 H         -4.5392394622       -5.3572776771        4.3545716331
 H         -5.6868955941       -5.3981159953        3.3030803277
 O          6.0356319432       -4.6127706401        4.7986529272
 H          6.9571302093       -4.3479380411        4.6911763531
 H          5.6017910866       -3.9878115105        5.4027211870
 O         -6.8448204615        0.4450221689       -6.5947989644
 H         -6.1529200279        1.1118235948       -6.6176132169
 H         -7.3652045868        0.6236711749       -5.7995658121
 O         11.6360739285        2.7351071131       -1.4240594044
 H         11.9706077964        2.0340095502       -1.9861506574
 H         12.0006565699        2.6083611738       -0.5400569028
 O         11.6504576226        0.4566125540        3.5264451332
 H         11.0500143924        0.9332851629        4.1023783432
 H         11.1808935054       -0.3439760843        3.2460975752
