  147

 H         -0.5425054112       -1.1597996585        0.9180873603
 C         -0.6112510051       -0.5412956740        0.0100749183
 H         -0.5391308395       -1.1969144470       -0.8712436601
 C          0.5103658647        0.5037878336       -0.0094871839
 H          0.3911098457        1.1518924073        0.8600966290
 H          0.3944399221        1.1152669956       -0.9056411629
 O         -1.7891825170        0.2100258093       -0.0077307040
 H         -2.5646581753       -0.3620747641        0.0026734602
 N          1.8637421187       -0.1172780949        0.0059475209
 H          1.9871272141       -0.7237037740       -0.8163106225
 H          1.9839787968       -0.6890763206        0.8531041602
 H          2.5930828886        0.6072400317       -0.0077051379
 O          2.4351866279        3.2621489016        1.9363683473
 H          2.8487645388        2.3808043040        2.0392969941
 H          3.1427161687        3.8873140240        2.1124901481
 O          1.8061814287       -1.8979806469        2.0880048973
 H          0.9450160173       -2.3367882074        2.1390829423
 H          1.9313354584       -1.4080252896        2.9361266128
 O         -0.1322143528        0.1445251386        3.2325256038
 H          0.5350925761       -0.0676289443        3.8933668690
 H         -0.1486673431        1.1195743882        3.1679883645
 O         -3.6347856989        1.5505730808        1.7119443445
 H         -3.2469929426        0.7108944166        2.0305270633
 H         -3.3776467026        2.2274848964        2.3644459394
 O          3.7531540168        1.7763495987       -0.2586614473
 H          4.2969422188        1.4590614374       -1.0070248102
 H          3.1534516764        2.4693299917       -0.6106208776
 O         -0.1613540870        0.3158269036       -3.3390803537
 H          0.7195498522        0.6862612844       -3.1421993509
 H         -0.7900689168        1.0284980155       -3.1728423308
 O          3.7819962616        0.9200070206        2.4123105168
 H          4.6668710742        1.1835012809        2.7053185547
 H          3.9571380611        0.2283383798        1.7473653183
 O          2.4244076329        0.9481171380       -2.6659305127
 H          2.7791200366        0.2377906632       -3.2216332799
 H          2.9757046422        1.7234197457       -2.8446588500
 O         -0.1150053058        3.1347570548       -1.8985171380
 H         -0.6570402004        3.6290075373       -2.5135528244
 H         -0.6241713703        3.0845249634       -1.0566682274
 O         -2.5329348809        1.5784710798       -2.2350172257
 H         -2.1337434158        1.0722681282       -1.5003134542
 H         -3.1343318249        2.2083193133       -1.7898206546
 O         -0.1217865101        2.8285525614        2.8302621894
 H          0.7963847815        3.1254178269        2.7366668653
 H         -0.5047690115        2.9125442658        1.9249402579
 O         -1.3130890636        2.9464063821        0.4669917563
 H         -1.9599109569        3.6898161236        0.5882842775
 H         -1.8233018242        2.1207512172        0.5049079769
 O          0.6856840170       -3.8321817029       -0.5908798799
 H          1.5858373823       -4.1862388399       -0.4780401797
 H          0.3453456529       -3.6615535586        0.3044301865
 O          1.5021970121       -1.7928108452       -2.1342274974
 H          1.0658382872       -2.5558475444       -1.7051261905
 H          0.8765066271       -1.3620832249       -2.7267234941
 O         -4.3418723288        2.7703956466       -0.6188016041
 H         -5.1706417741        2.4494886072       -1.0175438690
 H         -4.1771510524        2.2149016568        0.1643768275
 O         -2.6253475664       -0.7348166582        2.7968160382
 H         -2.5757030483       -1.5415436905        2.2767676690
 H         -1.7083941653       -0.4771072687        3.0250207418
 O         -4.0994875382       -1.0198887822       -0.1066297162
 H         -4.8191427724       -0.6866327608        0.4808369300
 H         -4.3530961442       -0.7986470282       -1.0229200328
 O         -2.8522899930       -3.1828051068        0.7393339226
 H         -2.6051238757       -3.6778473969       -0.0837870533
 H         -3.3429023319       -2.4022606797        0.3982363872
 O         -1.9885331512       -1.6811782393       -2.7387700366
 H         -2.8756222239       -1.3742742951       -2.9429072399
 H         -1.3810735046       -1.0090201110       -3.0863364472
 O         -1.9319661567       -4.1484016939       -1.5220199796
 H         -0.9881470392       -4.2688110663       -1.3496213145
 H         -1.9973464201       -3.3476344507       -2.0687360292
 O         -4.5460486961       -0.1351386848       -2.6484102394
 H         -5.3036562290        0.4685084421       -2.5311362536
 H         -3.7726358664        0.4759987626       -2.6604749574
 O         -5.8879797543        0.0352879841        1.5491082538
 H         -5.3386566609        0.8205504967        1.6977526775
 H         -5.8071428824       -0.4904795822        2.3858643195
 O          4.0870465492       -2.2235255613       -1.6802698445
 H          4.8099474891       -1.9841021664       -2.3060147795
 H          3.2524754264       -1.9906931485       -2.1272387908
 O          5.2087081019        3.5742815867        1.0713457783
 H          5.5733204772        4.1464648224        0.3964658603
 H          4.6679922014        2.8895982733        0.6043639245
 O         -6.4714759059        1.6306763866       -1.8841331815
 H         -6.9986689360        0.9893212097       -1.3182512288
 H         -7.1112823294        2.1485965796       -2.3715089240
 O          6.7919821779        0.1914236026        0.2631259813
 H          5.9623298581       -0.3134717235        0.4395411857
 H          6.8978408728        0.7486406890        1.0496736397
 O         -5.2224250133       -1.3525403902        3.6694019578
 H         -4.2854721422       -1.1130350535        3.6597980845
 H         -5.2624946506       -2.2667262438        3.3310909746
 O         -0.4996483629       -3.4063601112        1.8908949326
 H         -0.5515537689       -4.1699803432        2.4673252669
 H         -1.4021248093       -3.3032970908        1.4965399229
 O          6.4416745246        1.7252008727        2.5151842968
 H          7.0244236810        2.0384987150        3.2045986568
 H          6.0928261930        2.5149695487        2.0426810742
 O          5.6805782757        1.0641129822       -1.9974980466
 H          6.2474878977        0.8474451350       -1.2213574919
 H          5.9485651347        1.9098960082       -2.3608202428
 O          2.1998332749        3.8661771054       -0.8118492191
 H          2.0304049094        3.8890599195        0.1423622248
 H          1.3501963264        3.6305837148       -1.2450699807
 O          2.4101351667       -0.4840577421        4.2488100620
 H          2.8663169270        0.1775431887        3.6881469004
 H          3.1350340146       -1.0072840167        4.6136634545
 O         -7.6798283532       -0.1679222566       -0.4716353756
 H         -7.3430803173       -0.9910304700       -0.8656276716
 H         -7.2352478424       -0.0931546341        0.3904881540
 O          4.4952524515       -1.0683502443        0.6621690754
 H          4.4768876805       -1.8722433209        1.2234412632
 H          4.3361882800       -1.4058743017       -0.2474237537
 O          5.9764840535       -1.3117264761       -3.2974776468
 H          6.7644881465       -1.6450056066       -2.8376472649
 H          5.8824515672       -0.3933201107       -2.9802970914
 O         -2.7290557772        3.3780941758        3.4844987731
 H         -2.9520910788        3.0978086804        4.3723692110
 H         -1.7593983973        3.3174216322        3.4081546868
 O         -3.1601367876        4.7471351828        0.8893047185
 H         -3.3709348252        4.5828231251        1.8148163800
 H         -3.8331923164        4.3032639327        0.3480215846
 O          3.3512344857       -4.4616798304       -0.4609336293
 H          3.6769533624       -3.6613490379       -0.9360861687
 H          3.6136657503       -5.2142118815       -0.9890459748
 O         -6.3236886073       -2.1977649666       -1.7805420166
 H         -5.7104376894       -1.6733182724       -2.3122458116
 H         -6.7281513458       -2.8384775471       -2.3648082378
 O          3.4048753351       -1.0347175103       -4.2922955872
 H          4.3553932983       -1.2086134377       -4.2792845317
 H          3.0227635621       -1.5177655864       -5.0236992410
 O         -5.1095829379       -3.6693404946        2.2312649717
 H         -4.2863408093       -3.6487333917        1.7124028742
 H         -5.8287979266       -3.7096789621        1.5990040884
 O          7.7960115554       -1.8097268326       -1.3457128559
 H          7.5983679615       -1.0798868891       -0.7360239984
 H          8.1673066796       -2.5173865909       -0.8200165554
 O          4.0294280551       -3.3599509263        1.9693804638
 H          3.9347593918       -3.9890477227        1.2391204321
 H          3.1347481606       -2.9727285441        2.0827396767
 O          4.8877606071       -1.6749139449        4.0061583506
 H          5.8290547583       -1.5121302669        3.9524002437
 H          4.7041276882       -2.4340766472        3.4357137089
 O          3.9659211128        3.3127150454       -2.8290333508
 H          3.7415051369        3.6981015551       -3.6751967495
 H          3.4093617987        3.7570098220       -2.1681431346
