  147

 H         -0.5425054112       -1.1597996585        0.9180873603
 C         -0.6112510051       -0.5412956740        0.0100749183
 H         -0.5391308395       -1.1969144470       -0.8712436602
 C          0.5103658647        0.5037878335       -0.0094871839
 H          0.3911098457        1.1518924073        0.8600966289
 H          0.3944399221        1.1152669956       -0.9056411629
 O         -1.7891825170        0.2100258093       -0.0077307040
 H         -2.5646581753       -0.3620747641        0.0026734602
 N          1.8637421187       -0.1172780949        0.0059475209
 H          1.9871272141       -0.7237037740       -0.8163106224
 H          1.9839787968       -0.6890763206        0.8531041603
 H          2.5930828886        0.6072400317       -0.0077051379
 O          3.6941218415        1.8388474272       -0.4049098927
 H          4.6030183265        1.4987290713       -0.3559143233
 H          3.6531728132        2.5840615501        0.2148040818
 O          1.3580716247       -1.7289480067       -2.0797520090
 H          2.0235428914       -2.1164213962       -2.6969306613
 H          0.9174078096       -1.0105361642       -2.5824245925
 O          2.0654945854       -1.6531209864        2.2080389791
 H          2.8902470509       -1.5485450610        2.7155698234
 H          1.3271664947       -1.3653296096        2.7866930895
 O          2.3497872064        1.5953506015       -2.9004542477
 H          1.5206264862        1.2350662581       -3.2528095851
 H          2.1024916779        2.1724615071       -2.1632395269
 O          4.1439624353       -1.5360120747       -0.0623544375
 H          4.1460604500       -1.2485189725       -1.0020179044
 H          3.5950744087       -2.3339993398       -0.0100718808
 O         -0.0128162416       -0.8008501797        3.6280335922
 H         -0.4222175588        0.0323575890        3.3280240371
 H         -0.6519455618       -1.4947759825        3.3924962625
 O         -1.6314499800        1.1561498787        2.5551872351
 H         -1.7777116231        0.8023767902        1.6579937531
 H         -2.3215000267        0.7442255446        3.1108966244
 O         -4.2248845702        0.5845815087       -0.8863833226
 H         -5.0901172371        0.1702165956       -1.0156970146
 H         -4.3306980231        1.3229988605       -0.2659263173
 O          2.4573093693       -3.6552623681        0.4192161971
 H          2.3658820568       -3.1235858176        1.2276609854
 H          1.5589955412       -4.0159509220        0.3098689082
 O          3.9558899001        0.3971534877        1.9579400230
 H          4.1891301595       -0.2444796814        1.2713449389
 H          4.7328619046        0.9409467462        2.1435810884
 O          0.8961403007        3.3867188499       -1.2109074572
 H          0.8910008006        3.6227245849       -0.2471324382
 H          1.0000575701        4.2106736670       -1.6883509375
 O          0.0323728331        0.1859102384       -3.4187387526
 H         -0.9278315653        0.2763233083       -3.2659353666
 H          0.1260710999       -0.3680274878       -4.2123903470
 O         -5.3634393404        0.0504929737        1.9776667345
 H         -6.2564100291        0.0199170509        1.6022483019
 H         -5.0293598106        0.9423941883        1.7562840154
 O         -4.5199406434        2.4599520988        1.1066672874
 H         -5.2228020353        2.9606490805        0.6728604563
 H         -3.7917789151        3.0716090378        1.3324724167
 O         -2.1006496904        3.6284131384        1.5281174899
 H         -1.8951891886        2.8072052322        2.0190250162
 H         -2.0116429590        3.4135776713        0.5746097499
 O         -1.7697591583        2.8101125905       -1.0165092307
 H         -0.8290487057        2.9858096878       -1.2083643141
 H         -1.8466761333        1.8630819802       -0.8127778895
 O          1.8727737327        1.8707302272        2.6228863265
 H          2.5573695960        1.2568499810        2.2780571697
 H          1.8396382320        1.6199898429        3.5639221594
 O         -2.6788501818        0.3137871561       -3.0381384277
 H         -2.7209693747        1.2611830176       -3.3732151635
 H         -3.0804567041        0.3851318670       -2.1462194274
 O         -1.7220811101       -2.6594038475        2.4733157866
 H         -2.1763877878       -3.1592326151        3.1526682708
 H         -2.4225466407       -2.2633390555        1.9087533880
 O         -3.5587655554       -1.6262732907        0.8141172400
 H         -4.2601714274       -1.0777353594        1.2181185544
 H         -3.9794414914       -2.1793113076        0.1335206075
 O         -6.3967729391       -1.0264749668       -1.5688183438
 H         -6.1724413546       -0.7381726275       -2.4728669574
 H         -5.8716798943       -1.8341392110       -1.4190328891
 O          3.9702132950       -0.5793048244       -2.5280421123
 H          3.4228035611        0.2234354670       -2.6172553800
 H          4.8974801743       -0.2888858899       -2.6260936333
 O          6.3016819740        0.9262163527        0.1336733731
 H          6.4075339072        0.0775370685        0.6047226359
 H          6.4699840594        1.6116572252        0.7930121926
 O         -0.5230803761       -3.5627541102       -2.1396603550
 H         -0.1446539591       -4.3921331235       -2.4332109447
 H          0.2261886144       -2.9124354588       -2.0904946155
 O          3.0317436526       -2.7582164978       -3.8418222596
 H          3.5932705686       -1.9699555566       -3.7738598184
 H          3.4582680147       -3.4139084793       -3.2446268490
 O          6.2999468423       -1.5237179878        1.4242721393
 H          7.0260082985       -2.0905195923        1.1608700055
 H          5.5740335927       -1.7137250435        0.7829139572
 O         -2.8294017544       -2.4645176485       -3.0964796579
 H         -1.9998425779       -2.8693446670       -2.7860270032
 H         -2.6729572377       -1.5095170905       -3.1507463046
 O         -4.6084838676       -3.0406893864       -1.2629927740
 H         -4.7698951053       -3.9829758018       -1.3115468534
 H         -3.9594323414       -2.8270414183       -1.9898975265
 O         -2.9345412694        2.8307296359       -3.5158704471
 H         -3.9067256397        2.9161620911       -3.4451838146
 H         -2.5843200941        3.1021758343       -2.6514125778
 O          0.6252907802        3.9896199483        1.3464331889
 H          0.8943382138        3.2374964387        1.8979940952
 H         -0.3277424341        4.1135179021        1.5113211638
 O          3.5308353969        3.7443395561        1.6310157282
 H          2.9214819545        3.1462798920        2.1209384021
 H          3.0396965252        4.5569726217        1.4970507987
 O         -7.6366340033        0.2476844956        0.3955696470
 H         -8.5471509988       -0.0289625709        0.5039648523
 H         -7.2677182062       -0.2764674491       -0.3497146897
 O          4.1804856643       -4.0786426398       -1.8397310382
 H          4.9606636678       -3.5519770035       -1.6000774410
 H          3.6232695996       -4.1356980459       -1.0517468165
 O          6.4959946230       -2.4802317839       -1.4392026359
 H          7.1622750175       -3.0039633687       -1.8851475941
 H          6.5204549706       -1.6057235647       -1.8573599089
 O          5.8204669375        2.4561621371        2.3530470868
 H          6.1101572958        2.6814856691        3.2368874083
 H          5.1116091796        3.0809443706        2.1165078109
 O          4.4263515039       -1.7041658857        3.6243102850
 H          5.1304611963       -1.5405535388        2.9753724583
 H          4.6153925172       -2.5496337275        4.0325631347
 O          5.0389512468        2.2647378484       -3.4229242563
 H          5.1493994443        3.2021195365       -3.2669644172
 H          4.0892995915        2.0825333217       -3.3487195024
 O          6.5485752696        0.1818750517       -2.4710236765
 H          6.6171034679        0.5373139925       -1.5675451427
 H          6.3135791793        0.9455656470       -3.0217547390
 O         -5.2495267825       -0.1356391354       -3.8416773498
 H         -5.2944069251       -0.5270418179       -4.7126494589
 H         -4.2960344288       -0.0371086363       -3.6278348105
 O          0.5497029140       -1.9839825294       -4.9422457644
 H          1.4462708246       -2.3211301815       -4.7937956096
 H         -0.0419420122       -2.7370013483       -4.9214063863
 O         -5.5809470120        2.5697168233       -3.0398657160
 H         -5.9057767371        2.6051648570       -2.1286506395
 H         -5.6714761366        1.6542565606       -3.3378712455
 O         -6.7531047025        2.7051852930       -0.4600048799
 H         -7.1242097644        1.8658147638       -0.1271144024
 H         -7.4857238387        3.3092011528       -0.5817511491
 O         -3.4834435293       -0.2485153247        3.9401721529
 H         -4.2612600390       -0.2431960539        3.3580455877
 H         -3.7733620719        0.0489092033        4.8025137492
 O         -0.2166582745       -4.1666169414        0.5652501137
 H         -0.5951979837       -3.9143555669       -0.2886665640
 H         -0.6842563134       -3.6676009209        1.2501912970
 O          2.3044709599        0.3729188237        4.8152840382
 H          3.0570327440       -0.1654948244        4.5459620154
 H          1.5162403367       -0.1779963216        4.7285214658
