  146

 H          0.4630927076        1.1941025328        0.8323452959
 C          0.5529035761        0.5095402431       -0.0251092076
 H          0.4633421182        1.0989800596       -0.9466436097
 C         -0.5779259334       -0.5149488604        0.0205351873
 H         -0.4518492549       -1.1270258237        0.9278134322
 H         -0.4840892691       -1.1748678656       -0.8448928485
 N         -1.8603253885        0.1647702475       -0.0623309409
 H         -2.6131021664       -0.5138473280       -0.0751527664
 H         -1.9956541839        0.7570092262        0.7508171931
 O          1.7808081027       -0.1833448059        0.0209869108
 H          2.5006908393        0.4507195084       -0.0567171280
 O          0.5503638764        0.5302534392       -3.3138905083
 H         -0.3440382368        0.2658976003       -3.0216979696
 H          0.8819151822       -0.2542503591       -3.8090238065
 O          2.2012326658        2.5870173041       -2.4505127477
 H          3.1445264954        2.4684604720       -2.6358865729
 H          1.7613474446        1.7737466151       -2.7450783727
 O          2.1513991764        3.2926477552        0.1496828142
 H          1.2972852073        3.7208983334        0.3018789797
 H          2.1574718507        3.0690403511       -0.8058289882
 O          2.3386228050       -2.1990922841       -1.8356663653
 H          1.8987873915       -1.5876715152       -1.2228285606
 H          3.1906441475       -1.7542953075       -2.0273817325
 O          1.0958719722       -1.8697166109       -4.2691033417
 H          0.2180341769       -2.2697424292       -4.2196658053
 H          1.5725366046       -2.1593041885       -3.4697473401
 O          4.2925926949       -0.0422035032        0.7488977504
 H          4.3737485369       -0.9518992194        1.1035635354
 H          5.1249665050        0.4422475597        0.9883743018
 O         -0.5260590539       -3.8420812294       -1.1419978514
 H         -0.0183847269       -3.6578896696       -0.3168731568
 H         -0.1319845274       -4.6365432612       -1.5060974383
 O         -1.4976776022       -2.6857327051       -3.4521980290
 H         -1.1924211871       -3.0712384700       -2.6146095001
 H         -2.4375889188       -2.9146993260       -3.5422861216
 O         -0.5615493491        3.9776955200        0.2765626430
 H         -1.1718767489        4.7287011654        0.2882255649
 H         -0.8969059873        3.3942442797       -0.4361046904
 O          4.4558157643       -2.5640881623        1.6535321487
 H          3.6575751912       -2.4951188100        2.1918085919
 H          4.1907699973       -3.1914521138        0.9362275420
 O          1.9638013193       -1.5097188160        2.4154026657
 H          1.9537919302       -0.9551088679        1.6078948118
 H          1.1516703376       -1.2965188490        2.9075640205
 O          2.7213651004        1.6781249081        2.2562685864
 H          2.5442228249        2.3597733899        1.5828545521
 H          3.2682100817        1.0080701614        1.8082254529
 O          0.3010246780        1.6180806457        3.5994336628
 H          0.0949576257        0.6786190455        3.6991939152
 H          1.1974088014        1.6720577646        3.2277285598
 O         -1.7344964822        2.4299217723       -1.5758290424
 H         -1.4055201910        2.5913851509       -2.4849486181
 H         -1.6680123088        1.4688581616       -1.3832025472
 O         -2.0613042911       -0.1334725780       -2.9367412841
 H         -1.8899471490       -1.0559200358       -3.2235181223
 H         -2.3680660745        0.3798880075       -3.7237362019
 O         -1.7104536549        3.0533035095        2.5695601326
 H         -1.0207253191        2.5954161935        3.0920623570
 H         -1.2323450552        3.3681962869        1.7740978262
 O         -3.6562170327        1.4486043040        1.9644052246
 H         -4.5088000583        1.6584684542        2.3720828375
 H         -2.9696087238        2.0861886676        2.3061863031
 O         -2.9067443769       -1.1340046524        2.5651076242
 H         -3.1791557043       -0.1988381140        2.5200816192
 H         -3.3655916759       -1.5448167151        1.8140296802
 O          0.7316977253       -3.6589727887        1.2006028048
 H          1.1974240781       -2.9225943126        1.6363961916
 H         -0.0597301983       -3.8365659518        1.7504961549
 O         -4.3624966878        0.0434389151       -1.6482545325
 H         -3.5216011490       -0.0877106928       -2.1539953606
 H         -4.2862861505        0.9380726504       -1.2710682371
 O         -4.4234452881       -1.7625644165        0.3002046246
 H         -5.2043593923       -1.4764738361        0.8406951454
 H         -4.3788915282       -1.1028987412       -0.4336334958
 O         -4.0909490141        2.5191170393       -0.4514088334
 H         -3.9238883646        2.0983140846        0.4259362913
 H         -3.2012080484        2.5969174134       -0.8740168954
 O          4.9871119034        3.0611596524        0.0037240803
 H          4.9372341511        2.7222536921       -0.9092397757
 H          4.0987367393        3.3712110503        0.2150429466
 O         -6.5902154479       -0.7922173383        1.3899980395
 H         -6.4785612600        0.0443052137        1.8702430440
 H         -6.9773911582       -0.5655584902        0.5268467958
 O         -6.3584947777        1.8056187026        2.3400544176
 H         -6.6196184899        2.0859511265        1.4280440984
 H         -7.0021983746        2.1814670878        2.9392765300
 O          4.5577878146       -0.7225311770       -1.8204404560
 H          4.4416555152       -0.4546769230       -0.8799422090
 H          5.4562572739       -1.0877717619       -1.8639811576
 O          3.2017764462       -4.0953900909       -0.1002061321
 H          2.3901221979       -4.2708188317        0.3935886553
 H          2.9296325377       -3.5014576563       -0.8292626007
 O          7.1490076388       -1.4334519036       -1.3766798182
 H          7.7635087716       -2.0919703296       -1.6981612649
 H          7.1737494523       -1.4798161909       -0.3868213395
 O          7.0815943411       -1.4214973974        1.2648844871
 H          6.2774411760       -1.8803603873        1.5435784337
 H          6.9863662452       -0.4840636805        1.4939540689
 O          6.3796240779        1.3303647661        1.5002259403
 H          6.0457240533        2.0957063503        0.9849025655
 H          6.0703654761        1.5126791824        2.4211815893
 O         -7.0130196612       -0.3179415605       -1.3247506991
 H         -7.2352641486       -1.2274140956       -1.5491458124
 H         -6.0828838545       -0.2162001241       -1.6051340465
 O         -0.5624494567        2.8586097070       -3.9689425744
 H          0.0962538284        3.5451383864       -3.8448557742
 H         -0.0633611300        2.0120310506       -3.9266336843
 O          5.0633186667        1.6825690227        3.7737671004
 H          4.2270865543        2.0168546427        3.4138819082
 H          4.8361627128        0.8045161041        4.1223741383
 O          4.8808659613        1.8783080156       -2.4958806536
 H          5.8539016773        1.9033897479       -2.4773270621
 H          4.6740350316        0.9271224739       -2.3991046591
 O          7.4199197910        1.3330863068       -1.6651410125
 H          7.4643584975        1.6161141074       -0.7482261371
 H          7.4043939743        0.3621499055       -1.6472141858
 O         -6.8572653221        2.2887855567       -0.2266956738
 H         -5.9279928958        2.4588040667       -0.4409626443
 H         -7.0976071380        1.4585958960       -0.6611905509
 O         -0.4351390960       -1.0796309170        3.6364978696
 H         -1.3148413776       -1.0933303617        3.2029604225
 H         -0.5382235108       -1.5332734893        4.4738108681
 O         -1.6506347769       -3.8650010500        2.4569588898
 H         -2.1024830709       -3.0803310514        2.7804377525
 H         -2.1810956339       -4.1705171926        1.6916836469
 O         -2.9774701738       -4.1739028527        0.1181361398
 H         -2.1873254565       -4.0641364854       -0.4375784532
 H         -3.4523162625       -3.3320800785        0.0989511965
 O         -6.0549606651       -3.0537232208       -1.4691670121
 H         -5.4807166916       -2.7314811862       -0.7445549502
 H         -6.1634048477       -3.9933032930       -1.3218758571
 O         -4.2199623221       -2.5857662689       -3.4693944756
 H         -4.9092293911       -2.7775429298       -2.8081463430
 H         -4.5019078555       -1.7997607648       -3.9396898293
 O         -2.9459686491        1.5398022100       -4.7530344600
 H         -2.2196944402        2.1766459325       -4.7543661039
 H         -3.6909880251        1.9796572303       -4.3148084695
 O         -4.9606414400        2.7095849624       -3.2052244180
 H         -5.9158548114        2.6410934754       -3.1904289644
 H         -4.6792817864        2.9700358103       -2.3218839851
 O          4.0941206541       -0.8694622957        4.1730589190
 H          4.6836911062       -1.5933967216        3.9547002902
 H          3.3000944089       -0.9721697977        3.6243866704
 O         -3.1057540537        4.9762232626        0.7656340129
 H         -2.9633025483        4.6860564479        1.6719055863
 H         -3.6506916579        4.3008707280        0.3418255573
