  536

 H          0.4630932606        1.1941028516        0.8323455012
 C          0.5529053933        0.5095410124       -0.0251106328
 H          0.4633426934        1.0989791352       -0.9466457198
 C         -0.5779265447       -0.5149496986        0.0205340012
 H         -0.4518487107       -1.1270262188        0.9278122516
 H         -0.4840888187       -1.1748656956       -0.8448949875
 N         -1.8603261200        0.1647696693       -0.0623295200
 H         -2.6131031510       -0.5138472043       -0.0751533567
 H         -1.9956546860        0.7570101979        0.7508176567
 O          1.7808082102       -0.1833442967        0.0209878324
 H          2.5006886204        0.4507191933       -0.0567175764
 O          3.6638185018       -0.5396208830       -4.4160389758
 H          3.4373848317       -1.0128154636       -3.5848677430
 H          3.4637892196        0.4004143928       -4.2046608502
 O          3.5639366872        1.5169273891       -1.1039115629
 H          3.0947388610        1.6653357932       -1.9431831180
 H          4.3569603710        1.0317073002       -1.3951281042
 O         -1.8621574373        1.6875407209       -2.1523912506
 H         -1.9979063684        0.9804579392       -2.7950940880
 H         -1.8543143828        1.1732766090       -1.2831321506
 O         -4.4228117225        2.3363277354       -3.3414863041
 H         -4.4679409973        3.2969982204       -3.5323625114
 H         -5.1860666964        1.9340735174       -3.7874441933
 O         -4.3546378715        1.7348651303       -0.6769750662
 H         -4.4150908213        1.9683125965       -1.6228391994
 H         -4.3648064364        0.7637850174       -0.6399069292
 O          2.8751269801       -1.4915541455       -2.1054505011
 H          2.7082813030       -2.4489533482       -2.1258066799
 H          3.3597835480       -1.2994996743       -1.2802065904
 O         -2.1667914685       -0.9158113150       -3.0806459115
 H         -2.0042178484       -1.2891121829       -3.9670279316
 H         -2.0523465513       -1.6470892944       -2.4523325894
 O          0.8827472821       -0.0750813100       -3.2037256031
 H          1.6541782623       -0.3924387852       -2.7007940245
 H          0.8320490432        0.8920232191       -3.0927379997
 O          0.3479292304        2.5696172097       -3.2118743763
 H         -0.4887200818        2.3987676436       -2.7220189223
 H          0.8250001177        3.3146543815       -2.8106882733
 O          0.0482147279       -2.6544446353       -2.9037787996
 H          0.2928170691       -1.7209446923       -2.9861250073
 H          0.4132367973       -2.9981272288       -2.0759088680
 O          2.1717388000        2.5263187326        1.9828638759
 H          3.1236398649        2.5764542040        1.7870187750
 H          2.0466427638        1.8191175270        2.6391303421
 O         -3.4010684738        1.1951126579        2.0878984882
 H         -3.4835753718        1.8127277323        2.8370868323
 H         -3.8644417100        1.5825992109        1.3410668370
 O         -3.1706770646        4.1584830790        1.2836251428
 H         -2.5222346804        3.4781501168        1.5713430826
 H         -2.7017846901        5.0146609980        1.3775653698
 O         -1.0108920343        2.7963954908        1.6809292718
 H         -0.5477289832        3.3252167945        2.3620918383
 H         -0.6303580413        3.1070875691        0.8365644252
 O          2.9020748427        3.9294927295       -0.3138349834
 H          3.3346700592        3.0590142735       -0.4303585177
 H          1.9767261455        3.7300866783       -0.0996456225
 O          0.6207527569        4.3287083164        3.0616416227
 H          1.3130769577        3.7370292486        2.6745375414
 H          0.8394755531        4.4119027155        4.0109785325
 O         -0.8002859257        0.3762149443        2.8633771433
 H         -0.9162043053        1.1872033427        2.3420302195
 H         -1.1997196742        0.6123370698        3.7273721392
 O          1.5764842607        0.5757030995        3.7873467194
 H          2.2178520363       -0.0260061882        3.3499189046
 H          0.6854245037        0.4197018387        3.3563213622
 O          1.9888161456       -2.5447994873        1.2644033603
 H          1.9447809981       -1.6690693182        0.8336720665
 H          1.5195507126       -2.4543449034        2.1168715749
 O          0.3306346151       -3.7227936170       -0.3613222428
 H          1.0510528342       -3.2811275878        0.1557709990
 H          0.4753438584       -4.6802191390       -0.1965417602
 O         -1.5002173979       -3.4383691508        1.5648125233
 H         -0.7583545136       -3.4164086372        0.9272356800
 H         -2.0838584893       -4.1426417192        1.2157205118
 O         -3.0494161373       -1.4354407614        2.6885023123
 H         -2.9981678030       -0.5014973764        2.4084118208
 H         -2.4567408238       -1.9810150447        2.1485823691
 O          4.3892307069       -1.1163033624        0.1001782314
 H          3.9924565102       -0.8414216596        0.9424565533
 H          4.5553037954       -2.0844644166        0.2135996300
 O         -4.7401831887       -0.6391640637       -3.2423958313
 H         -3.7837441810       -0.6291115009       -3.0091483136
 H         -4.9810422093       -1.5840634056       -3.3186527961
 O          0.1250384347        4.1545346991       -0.3367706304
 H         -0.2939166276        4.5207695816       -1.1334223395
 H          0.3106249011        4.9268054508        0.2310407536
 O          5.4563510808        0.1944107612       -2.4815878816
 H          5.2220927248       -0.7536401416       -2.4656317558
 H          6.4154795034        0.2177030478       -2.3060863709
 O          5.3460198165        5.1562464459       -1.7905602869
 H          5.6141543866        5.0653173398       -0.8540191042
 H          4.7136382229        5.9054144489       -1.7721686153
 O          2.9711597280        1.9168277986       -3.6726837706
 H          3.6084752497        2.6503722244       -3.7613243484
 H          2.2922596595        2.0948356911       -4.3576909475
 O         -6.0105070535        2.5547906551        1.1628187274
 H         -5.4222473576        2.3315025622        0.4045157046
 H         -5.9504247704        3.5138981549        1.2762963820
 O         -4.7403995724       -0.9049286554       -0.2554863946
 H         -5.4928596015       -0.5890564501        0.2880802472
 H         -5.1940364441       -1.2855530155       -1.0363161440
 O          4.8437619598        2.6946873562        1.5893265734
 H          4.9766623271        2.6977158649        2.5530972439
 H          5.3702790135        1.9300722237        1.2416332034
 O          3.5479020255       -0.7071609079        2.6808318402
 H          4.1405021621       -0.6361385262        3.4505443118
 H          3.3739888321       -1.6597794611        2.5995661954
 O          1.3970731486        4.3296345148        5.6093608372
 H          1.8689028664        3.4958266416        5.7807244413
 H          0.4956334151        4.2308169867        5.9537215045
 O         -0.5349680756       -4.6636811987        3.6610769960
 H         -1.0069624088       -4.2012973181        2.9224813960
 H         -1.0842809546       -4.5550684834        4.4654924196
 O         -0.2143372932        0.3329630874       -5.5964928681
 H         -0.9693504256        0.9285164253       -5.4140630373
 H          0.1597168150        0.1247418314       -4.7135550804
 O          6.2095594208        0.7882554253        0.4214585295
 H          5.5458939095        0.1049718802        0.2020471184
 H          6.3564804303        1.3208294105       -0.3712423503
 O          2.4812617541       -4.0727370472       -2.6336819188
 H          2.3272040208       -3.9387531375       -3.5873475738
 H          1.8433627591       -4.7691011965       -2.3682692016
 O          1.8748890542        4.7653133930       -2.6155121054
 H          2.4525592542        4.4935150981       -1.8739869224
 H          1.5054123784        5.6192045163       -2.3445419140
 O         -2.9681870723        3.9742291304       -1.3594361446
 H         -3.0167961507        3.8977504825       -0.3823015611
 H         -2.7167860816        3.0902791134       -1.6986559454
 O          4.8681576203       -3.6548235939        0.4521434120
 H          5.7277118706       -3.8693051692        0.8514126778
 H          4.7850991727       -4.2119459168       -0.3439828264
 O         -4.0478725630       -3.3124706303        0.5422001191
 H         -4.0679270238       -3.5432695797        1.4954604796
 H         -4.3058348884       -2.3699066298        0.4496344690
 O         -5.6740407978       -1.7381856578        2.3168368734
 H         -5.9696493214       -0.8153795595        2.4703189073
 H         -4.7205890451       -1.7324155948        2.5338752921
 O         -6.1278042637        0.7135119950        3.1085669692
 H         -5.2965015373        0.6650303357        3.6185066883
 H         -6.0559248080        1.4618735837        2.4899915351
 O          2.9203543571        2.0288532055        5.6209563851
 H          2.4000285466        1.5124813177        4.9730345499
 H          3.1078465642        1.4349517655        6.3537845380
 O          6.4588139325        0.7398668085        3.4303179511
 H          7.4211226552        0.6881557001        3.5717434041
 H          6.0495679924        0.1174316243        4.0467808048
 O          3.0988597357       -5.2968268954        1.8271636810
 H          3.3175878536       -4.3783814794        1.5899892061
 H          3.8569864816       -5.8335599455        1.5377993235
 O         -2.2331945776       -3.1300588980       -1.4216452488
 H         -1.3635106996       -3.4131122250       -1.1054388317
 H         -2.8661778503       -3.2782076107       -0.6929985067
 O          5.1000623211        2.8363860960        4.2862062010
 H          4.3845205229        2.5300487425        4.8792205006
 H          5.6935146802        2.0618569334        4.1556188933
 O          6.3839175740       -1.6904875865        2.2669335020
 H          6.3650045325       -0.7189081112        2.2368505449
 H          6.6831546970       -1.9829300049        1.3875835568
 O          2.0402467632       -3.8630453217       -5.3520101472
 H          2.0576041745       -2.9787990409       -5.7866287867
 H          1.0932735076       -4.1057912783       -5.3630135365
 O         -5.5744352452        5.2705521125        1.2696720752
 H         -5.5447831132        5.5906287954        0.3475263941
 H         -4.6864797954        4.8847341250        1.4080760660
 O          7.1978339291       -2.0172947954       -0.3012376247
 H          7.5365172511       -1.1225752401       -0.1251043798
 H          6.3716022668       -1.9569044463       -0.7977711767
 O          6.4849564205        2.5837891964       -1.6198435515
 H          5.7834451994        3.2129069142       -1.8235085195
 H          7.0173821759        2.4566369582       -2.4325771774
 O         -1.5100488653       -1.5102624905        4.8515229850
 H         -0.6379835730       -1.6161489494        4.4292513981
 H         -2.1460156608       -1.4456677234        4.1051813233
 O         -4.1413101411        0.2039912799        4.8109534917
 H         -4.1339736002       -0.7608336918        4.9876821335
 H         -3.2386548538        0.5310159748        4.9467750137
 O         -7.0676442098        0.1204073896        0.4386081110
 H         -7.7434687080       -0.3353912881        0.9702878302
 H         -6.9979541159        1.0098733949        0.8107935440
 O         -1.5204003458        1.3604407012        5.1570148030
 H         -0.8930971967        0.9310297341        5.7646945520
 H         -1.3900900372        2.3182686647        5.2600094570
 O          0.8490742069       -2.3247671233        3.7121497480
 H          1.5802756871       -2.4654253709        4.3561898546
 H          0.4048082040       -3.1929508773        3.6717808436
 O          4.3486120316       -3.1542823056        3.2563550730
 H          5.1037256032       -2.6582038839        2.8926903275
 H          4.6846755025       -4.0577900110        3.3764034605
 O         -1.8350280984       -3.9020257955        5.8443462675
 H         -2.7505143337       -4.0801125700        6.0623203603
 H         -1.8187741224       -2.9620709356        5.5216179721
 O          2.7366829277       -3.1313237923        5.3769760366
 H          3.4935349020       -2.9607125507        4.7838974944
 H          2.5326302995       -4.0762802197        5.1830704395
 O          2.0523907195       -1.3749318752       -6.3112345952
 H          2.6116488381       -1.0266189804       -5.5760415413
 H          1.2320831858       -0.8730374889       -6.2854574361
 O         -1.2010679711        5.5526032078       -2.3931409837
 H         -1.9282419812        4.9623828596       -2.0788309799
 H         -1.0609767544        5.2934572842       -3.3280246854
 O          3.4437658107        5.9667849481        1.3054736849
 H          3.2728465865        5.1463679548        0.7864514328
 H          3.4479379777        5.7008352021        2.2476893635
 O         -2.5524897257       -5.6766520349        0.4757501755
 H         -1.9761399032       -6.2185236086        1.0565789878
 H         -3.4718724986       -5.9367327008        0.6716444083
 O         -6.9875605554        3.5412906038       -1.4712573856
 H         -6.7987348731        2.5913084217       -1.6075494460
 H         -7.4558997294        3.6552605287       -0.6204096124
 O         -1.3344700478        4.0064157180        5.8307048745
 H         -1.7775587094        4.6634187090        5.2614863104
 H         -2.0016897399        3.7300153595        6.4731743911
 O         -8.7633373014       -1.2040511401        2.0096836406
 H         -9.1323209607       -1.1300511724        2.9139439308
 H         -8.3905172206       -2.1032086881        1.9078672960
 O         -6.6999459587        0.9110889062       -2.0808513803
 H         -6.0000424207        0.3701207530       -2.4864985154
 H         -6.9385344598        0.4895544250       -1.2325908231
 O         -3.8356451158        2.9529371390        4.0797010692
 H         -3.5933870056        2.7367771246        5.0010062259
 H         -4.8073911785        3.0364163054        4.0752232180
 O         -2.0190007041        6.5211495036        1.5627730577
 H         -1.0615727334        6.6380231126        1.5278421357
 H         -2.3759057101        6.9273528709        0.7431716426
 O         -0.7412483656        4.4719330799       -4.7995246682
 H         -0.1172728004        4.8171688105       -5.4383117349
 H         -0.3563658607        3.6439724303       -4.4473523338
 O         -2.4494404463        1.7619104849       -5.0980959720
 H         -2.9673344812        1.9457476166       -4.2852276543
 H         -2.6247206877        2.5419452529       -5.6614290624
 O          5.4469886236       -2.4854833028       -2.4043188191
 H          6.3451482736       -2.5780253480       -2.7509844546
 H          4.8890806228       -2.9503065498       -3.0446490243
 O          5.9478557341        4.9630200208        0.8754494097
 H          5.5449558308        4.0708492442        1.0641204479
 H          5.2392348918        5.5925772833        1.0923214151
 O          8.6266597816       -0.2555627569        1.1437399167
 H          8.3505201450        0.5964730933        1.5175506659
 H          9.3420378779       -0.0593496088        0.5115625609
 O          2.0628125609       -5.4670345027        4.3522372049
 H          2.4923566001       -5.4535259571        3.4771426804
 H          1.1187604155       -5.3697354270        4.1756445654
 O          8.4159690675        2.3757792674        1.9033281097
 H          8.4060948855        2.8735189632        1.0683365837
 H          7.9921148979        2.9616111340        2.5539551199
 O          8.6806780070       -3.7968807763       -1.6669052205
 H          9.5858836378       -3.5541440993       -1.4129714648
 H          8.1125879391       -3.1664539278       -1.1752755436
 O          0.5750378186        0.0018612809        6.2564317064
 H          0.8681875417        0.0049096453        5.3251502501
 H          0.3162121476       -0.9145520544        6.4860508697
 O          8.0833869216       -0.0274840128       -2.4296972292
 H          8.0542367870       -0.9064008429       -2.8723125949
 H          8.2647983723        0.6114428615       -3.1320140177
 O          5.7598423874        1.5388763756       -4.8677866585
 H          5.3703068095        2.4226941735       -4.7585911206
 H          5.5393159112        1.0431479805       -4.0492563481
 O          0.7524799202        6.2488831260        1.3012060128
 H          0.6417801683        5.6286042214        2.0656453544
 H          1.7161096746        6.4078484086        1.2904494210
 O          1.6482633651        2.3059124869       -5.9484484747
 H          2.4026485098        1.9159487979       -6.4357041874
 H          0.9208385661        1.6617857731       -5.9956855909
 O          9.4151721612       -2.6663299046        1.9237956979
 H          9.0216543105       -1.8122932409        1.6288617729
 H          9.1705989991       -2.7243926996        2.8679534636
 O         -2.7767177080       -4.5826834003       -3.5498273949
 H         -2.5652889147       -3.9877159413       -2.7867550943
 H         -2.0453907826       -4.4732970183       -4.1961118120
 O         -0.8573730422       -6.9037156030        2.1644301418
 H         -0.1296944293       -6.8839417662        1.5153785951
 H         -0.6287061413       -6.1992025140        2.8002146215
 O         -0.6406155183       -3.9939371521       -5.0235484819
 H         -1.0803335142       -3.3043403849       -5.5444672553
 H         -0.3468464090       -3.5239321805       -4.2038810952
 O         -7.4500698481       -3.4181601042        1.2588042682
 H         -6.6437297065       -2.8794870531        1.2535660679
 H         -7.6105762672       -3.7856383089        0.3661176935
 O         -6.5538324859       -2.0714177662       -1.8018716826
 H         -6.4102044943       -3.0130426470       -1.5876601934
 H         -7.4220990043       -1.8198225225       -1.4453895458
 O         -5.1617698517        5.4768183651       -1.3979300822
 H         -4.3660693664        4.8998680925       -1.4147879610
 H         -5.9023113327        4.8430561672       -1.4940745383
 O         -8.7801973052        2.0025285704        1.9046953084
 H         -9.5736327773        1.7007333563        2.3749399580
 H         -8.9377689798        1.6995165973        0.9931467576
 O          7.2956089357       -4.4106511110        1.4992358988
 H          8.0801574826       -3.8405938432        1.5885459625
 H          7.5001378474       -5.0565914004        0.8011361320
 O         -6.5242098992        3.2860741089        4.2322056892
 H         -7.2005199909        3.0454404797        3.5935820861
 H         -6.3916907485        4.2626708050        4.2038459364
 O          8.1376867140       -2.1826988282        4.2116175120
 H          8.5238173173       -1.3050051103        4.3751166801
 H          7.4476482475       -2.0315321934        3.5230405095
 O          8.2903791065        3.9885244174       -0.3174771447
 H          7.6237727591        3.4170672669       -0.7720492786
 H          7.7694877870        4.6427052826        0.1629752639
 O         10.2666296522        0.0181569419       -0.9237841048
 H         10.5322989019        0.9611772398       -0.8843303557
 H          9.4885700753       -0.0033550683       -1.5224981898
 O         -9.5734571656        1.4338885099       -0.6741177676
 H         -9.2836837363        1.3057693449       -1.6002732604
 H        -10.4621299472        1.0300386764       -0.6363405239
 O          3.0630560315       -0.4933634063        6.9980312392
 H          3.0733222658       -1.3725266706        7.3796386315
 H          2.1090449977       -0.2839448991        6.8514984898
 O         -4.3279979702       -2.4425310597        5.3017240315
 H         -5.2963799654       -2.5361964838        5.3046313105
 H         -4.0554766742       -2.9222192000        4.4951667309
 O          4.6080733162       -5.3621312391       -1.6197821887
 H          3.8449108640       -4.9154242408       -2.0370458254
 H          5.3702494580       -5.2652199018       -2.2249240935
 O          1.0136307390       -6.2398655588       -2.2128743580
 H          1.4009885175       -6.6348838332       -3.0071579838
 H          0.0466339741       -6.4134948158       -2.2112280915
 O          1.0211299853       -6.1593002820        0.4416277838
 H          1.2846924488       -6.4848970285       -0.4312286409
 H          1.8270352296       -5.8902939035        0.9374902483
 O         -1.6357643968       -6.5338300128       -1.9666553514
 H         -2.0115025825       -5.9100280725       -2.6084178715
 H         -1.9183891626       -6.2210121558       -1.0860375285
 O         -8.9956143475        1.3448446530       -3.3165791841
 H         -9.0398751780        2.3114351403       -3.4641283067
 H         -8.0691098068        1.1330654928       -3.0785218478
 O          4.8663394295       -0.8115737562        5.0746645783
 H          5.2578369973       -1.6999914575        5.2592986026
 H          4.1337072410       -0.7154816624        5.7214787604
 O          5.9952795060       -1.3102381067       -5.5293379788
 H          6.5703443342       -0.5606580977       -5.7286216627
 H          5.1938238930       -0.9367085418       -5.1018264697
 O          8.0204993837        2.4934178839       -3.8168659528
 H          7.3216525677        2.1896713563       -4.4353241634
 H          7.9894530275        3.4729289084       -3.7648725107
 O         -8.9371127112        4.0138958888       -3.2112778822
 H         -9.6870427975        4.2031177969       -2.6242379654
 H         -8.1663269422        3.9555451827       -2.6024259098
 O         -7.7741208934       -0.0274138884        5.0736178547
 H         -7.3122293554        0.4506528246        5.7855214484
 H         -7.3634232455        0.3139828173        4.2511523968
 O         -4.1096864089       -4.0828882664        3.1309386588
 H         -3.6464079654       -4.9314263832        3.2763909009
 H         -5.0521488800       -4.3343467388        3.1826350600
 O         -4.1647692489       -0.1420166370       -5.7878318164
 H         -4.4034161442       -0.3391767298       -4.8467289838
 H         -3.5182735108        0.5945969988       -5.7107414350
 O         10.8271424310       -2.5959586921       -0.4895244504
 H         10.4622847423       -2.8041266068        0.3839648535
 H         10.5665723878       -1.6723627909       -0.6636924133
 O         -9.1298189384       -1.5755866900       -1.2537689824
 H         -9.7398426761       -1.5059193160       -0.5018253744
 H         -9.6441241221       -1.2887517006       -2.0326951065
 O          3.4910451387        5.0955991100        3.8234874844
 H          4.0709623627        4.3505541152        4.0209652864
 H          2.8128205404        5.0984637159        4.5085038081
 O          4.7926560689       -3.7120651178       -4.7817979375
 H          3.8969548932       -3.8208732453       -5.1239749901
 H          5.1929657650       -2.9927289610       -5.2872789951
 O         -5.8417060456       -4.5446654743       -0.8937985474
 H         -5.0979536420       -4.1255607616       -0.4048941239
 H         -5.4598736352       -5.0986976225       -1.5956338139
 O         -1.9491049838       -1.7194664431       -5.6844369870
 H         -1.2761820454       -1.0346945351       -5.8641829539
 H         -2.8032001561       -1.3245457489       -5.9371071406
 O         -6.4104673981        1.2320838074       -5.0008736640
 H         -6.9875007213        0.4985554583       -4.7318914803
 H         -5.7375874724        0.8383379633       -5.5772275609
 O          4.6860936737        3.9131842438       -4.1649724022
 H          4.0072940142        4.3850560549       -4.7061086343
 H          4.8827468371        4.4832946368       -3.4095214968
 O         10.7699057120        2.6266586899       -0.7413388760
 H          9.9895800571        3.1941885455       -0.6871714644
 H         11.0787081907        2.5450132663        0.1933690094
 O         -4.7371381848        4.9057018663       -4.0586487885
 H         -5.5930599025        4.6879655971       -4.4901910022
 H         -4.9449378891        5.4316150475       -3.2745199233
 O         11.1036896992        2.1398174430        1.8342710292
 H         10.1566377748        2.2606675267        2.0431269683
 H         11.3161273047        1.2383713060        2.1121922875
 O          7.6930053214       -6.0381278631       -0.6209534851
 H          7.1403949364       -6.3680072196       -1.3336071707
 H          8.1909438265       -5.2968345363       -1.0332552982
 O         -7.5795470544       -1.1825842648       -4.2430355662
 H         -8.3601677635       -1.7625601583       -4.2390501579
 H         -7.0922891572       -1.4358672899       -3.4381416809
 O          5.8330265730       -5.3603103745        3.5750655317
 H          6.4615751517       -5.0506807610        2.8923412506
 H          5.4592760184       -6.1796057448        3.2469965531
 O         -6.9411459019       -2.5388004510        4.5234552879
 H         -7.2902830915       -1.6832651898        4.8427596632
 H         -6.5105383094       -2.3318706553        3.6599359918
 O         -8.6157759760       -4.2189384608       -0.9971168648
 H         -8.8799729356       -3.3055631789       -1.2314728173
 H         -8.1246595864       -4.5598396100       -1.7625750594
 O          0.8376264674        7.0562174496       -1.4460389720
 H         -0.0030322552        6.7961455297       -1.8547108605
 H          0.6949615465        7.0149801233       -0.4924741791
 O         -5.9648202677        1.5305031627        6.2987866027
 H         -5.3119649389        0.9953265502        5.7951694718
 H         -6.2455861645        2.2352739395        5.6926174708
 O          2.4746646683        4.8363482168       -5.2598388416
 H          2.1408770156        4.8771654476       -4.3446429388
 H          2.1175734822        4.0191971466       -5.6414045482
 O          3.6411022443        7.1207260393       -1.2500890826
 H          3.6074056159        6.9855740396       -0.2945313109
 H          2.7286872548        7.2633043963       -1.5309937229
 O         -5.1089562842       -3.2252946789       -3.9164600790
 H         -5.3519633830       -3.0003470273       -4.8447207170
 H         -4.2743640998       -3.7213546062       -3.9391465371
 O          7.8289758699        5.0127920010       -2.9891484863
 H          8.3659500357        4.9633953868       -2.1898488637
 H          6.9277004617        5.2246803964       -2.6870644936
 O         -5.1547734599       -6.3829678723        1.0501743620
 H         -5.5834309630       -5.9205768262        0.3089757903
 H         -5.6663422252       -6.1020030318        1.8255331034
 O          3.8302971560        1.0425134297       -6.8891987857
 H          4.5755202892        1.1235737885       -6.2717332686
 H          3.6237481812        0.1069107544       -6.9740489082
 O          5.1377636897       -6.6969965041        0.7176556650
 H          4.8459752550       -6.3945667241       -0.1593454533
 H          6.0976006511       -6.7108649014        0.6675963082
 O         -6.9414211647        3.9077905772       -5.1633797642
 H         -7.7442937752        4.0922276821       -4.6592445568
 H         -6.8485435825        2.9395680380       -5.1631174366
 O          6.0566309831       -3.1206320228        5.6252263180
 H          5.8329398629       -3.9618245405        5.2130979739
 H          6.9425926075       -2.8952892106        5.2844644493
 O         -8.2653228893        4.3748964654        0.7934338441
 H         -7.5909541281        4.8973791886        1.2359936916
 H         -8.4413009205        3.5770970430        1.3388719770
 O         -7.2776075422       -4.7453706028       -3.3617864970
 H         -6.5345268520       -4.1227132169       -3.5218309686
 H         -6.8751467632       -5.6157054423       -3.3704034066
 O        -10.4061038915        3.9713384541       -0.8680290527
 H         -9.8249393700        4.4719357808       -0.2814905538
 H        -10.0642184531        3.0495701961       -0.8156988072
 O        -11.0066034575       -1.5989657819        0.7710267905
 H        -10.2100711857       -1.3187753341        1.2894128452
 H        -11.0223970806       -2.5708772716        0.9128301447
 O         -2.9059043853        7.2147496970       -0.8654061218
 H         -3.7948121709        6.8942690439       -1.0535077434
 H         -2.3276513904        6.8034399759       -1.5250279012
 O        -11.2374274895        0.9088667460        2.4909034085
 H        -11.6748427943        1.6302900702        1.9902337674
 H        -11.4304372953        0.1132098375        1.9823848780
 O        -12.2754995592        2.5804827557        0.6711382157
 H        -12.4721616030        1.8883569924        0.0270700056
 H        -11.7496937850        3.2419859957        0.1900325243
 O         -5.9816643968       -2.2180293226       -6.1819660090
 H         -6.6859630873       -1.8091502475       -5.6387201361
 H         -5.3622906728       -1.5098008342       -6.3926668346
 O        -10.4104341249       -4.1606939917        1.1374084787
 H         -9.6850488910       -4.3835136856        0.5361334124
 H        -10.0085762458       -4.0994714428        2.0216151631
 O         -4.7525034079       -6.2607321101       -2.6880530191
 H         -4.0842000283       -5.7285248588       -3.1513296848
 H         -4.2696135774       -6.9554833087       -2.2360792417
 O          7.7636571656       -2.3067933952       -3.7976872332
 H          8.6637884726       -2.4110598284       -4.1131582776
 H          7.2083984189       -1.9721252568       -4.5390836394
 O         -9.4862923433       -3.0919247203       -3.9184558845
 H         -8.8183550345       -3.7907616741       -3.8687617052
 H        -10.1319615515       -3.2891164568       -3.2211581908
 O          7.1663034756        4.3406066285        3.3330666210
 H          6.8367174703        4.7982629117        2.5446605081
 H          6.3839860864        4.0189825334        3.8063103759
 O        -10.1479275545       -0.9391731208        4.2807283303
 H         -9.4249746366       -0.5362896560        4.7935095104
 H        -10.6902767760       -0.2107326859        3.9513690065
 O         11.3143857672       -0.5725308127        2.5522852411
 H         12.0582720082       -0.6787091898        1.9291579417
 H         10.7920149274       -1.3799400091        2.4473529217
 O         -2.9091234131        5.4629465733        4.0989224656
 H         -3.1907269844        4.5542100378        3.8560991427
 H         -2.5752742985        5.8979548575        3.3044202808
 O          0.4717478617       -2.5821951766        6.9094820155
 H         -0.2325450210       -3.2127860707        6.7170195786
 H          1.2789595273       -2.9109915442        6.4917609325
 O         10.6215343134        1.6236206322       -3.4148619244
 H         10.9255506805        2.0670901300       -2.6132857962
 H          9.7708797541        2.0348943407       -3.6337905846
 O         10.4250934551       -1.0798013237       -3.7802432575
 H         10.8924565884       -1.5998457986       -3.1246080061
 H         10.6503906207       -0.1451180637       -3.5972390007
 O          9.0760037637        0.3418116971        4.0919735002
 H          9.9078801842        0.2404931210        3.6134076269
 H          9.0952047060        1.2090139075        4.5465500708
 O         -9.2861298202       -3.5977165707        3.6342976343
 H         -8.4165489176       -3.3169767526        3.9855401216
 H         -9.9048524127       -2.9402972566        3.9701717135
 O          6.6966191374       -5.1142590830       -3.2863418087
 H          7.4260010033       -4.5401249093       -3.0104900586
 H          6.2290310928       -4.6638010519       -4.0031332975
 O        -11.9940153829        0.2536143589       -0.9215213124
 H        -11.8213647996       -0.4863935706       -0.3148474598
 H        -11.7991859159       -0.0626287095       -1.8169920379
 O         -3.6201309865        3.8111202416       -6.2996351389
 H         -3.6057894369        4.4530042563       -5.5760869052
 H         -4.5480062432        3.6108172967       -6.4421797880
 O         -6.5958224662       -5.1419396452        3.0318014658
 H         -7.1839200906       -5.2077742444        3.7832893462
 H         -7.0397018414       -4.5311812792        2.3929915824
 O         -3.4289525549        2.4318464625        6.7923419907
 H         -3.0259915730        1.5633330496        6.9704093787
 H         -4.3762709701        2.3057418772        6.9550777496
 O         -3.3315210882       -6.6233391167        3.3386714492
 H         -2.4662406948       -6.9596690342        3.0728407948
 H         -3.9633723134       -6.9527970310        2.6922583267
 O         -5.7085846505        5.7792887036        3.9501802959
 H         -5.7255820273        5.8564317604        2.9843849367
 H         -4.7703808032        5.8209264428        4.1997163646
 O        -10.7485296465       -0.6316033003       -3.2095104841
 H        -10.1621643714        0.1188473745       -3.4369213193
 H        -10.6590987443       -1.2877463951       -3.9047445369
 O          8.4209860197        0.1008416478       -5.3394254049
 H          8.7742692639        0.8882230503       -5.7509939025
 H          9.1770783385       -0.3860881994       -4.9849726337
 O         -2.6500166010       -0.3031586563        7.1438583156
 H         -3.3832135174       -0.9003044170        7.2962475487
 H         -2.1239850770       -0.7114628964        6.4383704860
 O          8.4894931955        2.6645906705        5.2339169437
 H          7.6810690822        2.3288363094        5.6507852396
 H          8.2345864439        3.4145279800        4.6868082283
 O          6.4972819107        1.0184600442        6.3134194956
 H          5.8213047181        0.3965641994        5.9907221627
 H          7.1764082252        0.4792955930        6.7170326328
 O         12.8934618725       -0.9418514698        0.3884246199
 H         12.4114302639       -1.6981740702        0.0154799745
 H         12.6838910834       -0.1869457052       -0.1664127887
 O        -11.2928784842       -3.4264312885       -1.7897170971
 H        -11.0128440943       -3.9908480668       -1.0616747465
 H        -11.8789057899       -2.7642833193       -1.4204434168
 O          2.7281660880       -6.4514325638       -4.3470118827
 H          3.6063971304       -6.3092921118       -3.9873656288
 H          2.5279487679       -5.6888308668       -4.9032634880
