  612
 
 H         -1.5749768523        0.1388337737       -0.7995985012
 C         -0.5947728309        0.4430809568       -1.1548126116
 H         -0.3803983036       -0.0482092811       -2.0991729848
 C          0.4544055389        0.0463205642       -0.1316389303
 H          1.4507606572        0.1917956141       -0.5311251358
 H          0.3222021113       -1.0044965480        0.1024687117
 O         -0.6097450867        1.8471708087       -1.3719229612
 H         -1.1932744056        2.1954392335       -0.6543090881
 N          0.3040821693        0.8363197538        1.0966889928
 H          0.4431003549        1.8478497164        0.9263162623
 H          1.0296408436        0.4909456671        1.7741475840
 H         -0.6473648991        0.6435360402        1.4983138197
 O          3.6561664772        6.8414993745        3.0074411802
 H          3.4599702534        7.6656146309        3.4515837054
 H          4.6500097248        6.7256805662        3.0852460290
 O          1.8662469782        1.9574596445       -3.9939871739
 H          1.8167158474        2.2049314835       -3.0473545556
 H          1.7980029301        2.7766167120       -4.5284257576
 O          7.9588167549        3.9878095586       -0.3607630519
 H          7.6668898316        4.0531234280       -1.2910707064
 H          7.3746254768        4.5873993637        0.1328835281
 O         -2.4401852589        1.1640071811        4.7985682923
 H         -2.6902449346        0.2187173581        4.7874182640
 H         -2.9545844954        1.6520861252        4.1277114674
 O         -4.4236191424        4.2483309703        1.0780797912
 H         -4.0617429989        4.0019563067        1.9485244703
 H         -4.7019621328        3.4051183973        0.6814982164
 O         -2.2388284208       -3.3813736069       -5.2294357928
 H         -1.4032257495       -3.6341202403       -5.6380651436
 H         -2.9116641662       -4.0196175579       -5.5283284746
 O          3.1508729030        1.4682890169        0.5774644862
 H          4.1044904338        1.5887439332        0.7231251399
 H          2.7315250259        1.8011883185        1.3931675101
 O          6.0418672410        5.6572556390        0.6531665451
 H          5.8726389388        6.3243124006       -0.0324914937
 H          5.1711054520        5.2472260955        0.7862380262
 O          2.1280450628       -0.3955846620        2.5278859550
 H          2.0593929214       -1.2013235189        1.9783600627
 H          3.0566640448       -0.1166367551        2.4376132424
 O          0.3544179605       -3.6244042593       -3.4549112377
 H          0.9319489923       -4.4039034076       -3.3450338869
 H          0.3050972713       -3.4597185019       -4.4083725322
 O          3.6814005410        4.5826532194       -1.9247165359
 H          4.1363667346        3.9789174785       -2.5417048570
 H          2.9350518213        4.0698960428       -1.5649028431
 O          5.9821658596        1.7217426523       -1.8056284797
 H          5.9759500820        2.0060065239       -0.8724132036
 H          5.1110104632        1.3125505068       -1.9686776641
 O         -1.8236939853       -0.1662597521        2.2411881309
 H         -2.6779195549        0.2863245115        2.3239819080
 H         -2.0421832595       -1.0942773041        2.0868706971
 O          0.2421540303        2.3807867405        6.7212128541
 H          0.2909264873        1.8273065926        5.9259942102
 H         -0.6982398773        2.3850225227        6.9994891612
 O         -0.5227002907        3.3703176292        3.2023599417
 H         -0.2013667042        2.4953826430        3.4740760261
 H         -0.3628956415        3.9576890191        3.9648007144
 O          3.3619356396        0.0628871405       -5.1230411077
 H          3.7840507782        0.6355075077       -5.7771001332
 H          2.6808694502        0.6011834111       -4.6830093854
 O         -2.4389186533       -5.0439131326        3.8357791114
 H         -1.7051797808       -5.1332005226        4.4517841880
 H         -3.2859309322       -5.0756314735        4.3424837992
 O         -0.3104428962       -3.7639521244        1.8731758850
 H          0.4212755727       -4.2412413516        1.4541411644
 H         -1.0745928972       -3.8876501439        1.2766824764
 O          2.2989684177       -1.6271353206        4.9372671381
 H          1.4158817530       -1.6933964516        4.5103266797
 H          2.8939562831       -2.0610071802        4.3093811155
 O          0.0847788509       -0.7039433572        6.7859030463
 H          0.0240254416       -1.6784691098        6.6793556949
 H          0.1135684005       -0.3260616528        5.8954758860
 O          2.2727249263        2.3504704528        3.0042210068
 H          3.1242876462        2.6466553198        3.3554259389
 H          1.9541006870        1.6657645387        3.6066160421
 O         -1.7837677387        4.3938882060       -1.8874336701
 H         -2.3026024600        3.5668630821       -1.9542177625
 H         -1.6590505159        4.5670498317       -0.9339633223
 O         -3.2014157122        3.2775857044        3.2984843272
 H         -2.2458513328        3.3111248733        3.0935203098
 H         -3.3251289695        3.8943154611        4.0343229037
 O         -2.3317933909       -1.9952294440       -1.1294255906
 H         -1.5287901987       -2.4371594411       -0.8295445868
 H         -2.8888464676       -1.7903698939       -0.3577026775
 O          1.5614497981       -1.2120877856       -2.7408525784
 H          2.2722178666       -0.5774637982       -2.5516548251
 H          2.0071429269       -2.0414677028       -2.9988597911
 O          7.1991030656       -0.5618161979       -2.4039168413
 H          7.7718938880       -0.5251558551       -3.1900404990
 H          6.9229117921        0.3535706624       -2.1875254186
 O         -2.1742344981        2.2463850451        0.6899452154
 H         -3.1076429388        2.0232879780        0.6221977475
 H         -2.1162871656        3.1937250773        0.8972909483
 O          1.8872512331        2.7203427515       -1.4644148499
 H          0.9281257070        2.5765154454       -1.3486765639
 H          2.3196639926        2.3393659942       -0.6776654837
 O          2.6401604701       -3.2202217750        6.9865108033
 H          2.4333073051       -2.5803571942        6.2587385348
 H          1.7804848591       -3.5342018276        7.2796121192
 O         -2.3241135703       -4.4592448964        0.1622394514
 H         -3.1530407774       -3.9594505862        0.1074090058
 H         -2.5574636608       -5.3025739515        0.6064197609
 O         -1.5408367121       -0.5763353202       -8.3244877842
 H         -2.2060299540       -1.0009401042       -8.8657362539
 H         -1.8644570382       -0.6656750055       -7.3880318915
 O          4.7621912815        6.9594645076       -1.3261740603
 H          4.3950513698        6.0727616229       -1.5260834087
 H          5.1495364123        7.2605809264       -2.1498666561
 O         -1.9002475114        4.8950301886       -5.1483791467
 H         -1.3953613834        4.5053946704       -5.8765737953
 H         -1.2997350715        5.4946865622       -4.6709126602
 O          6.3962277015       -4.4382834404       -4.2264105048
 H          6.4183331337       -3.7485436476       -4.9184744324
 H          7.2952013546       -4.8092980994       -4.1729147790
 O         -2.0235563122       -4.4640263062       -2.5799970084
 H         -2.0203086870       -4.5013117216       -1.6045632160
 H         -1.1780687249       -4.0586786544       -2.8684329598
 O         -9.5355859242       -2.2315492956        2.4802615859
 H        -10.1282072936       -1.9570707472        1.7570431340
 H         -9.2613942929       -3.1313710201        2.2366107498
 O         -8.5996117010       -4.2650775162        1.0124601124
 H         -8.1325171338       -5.0989830310        0.8777713921
 H         -7.9838048725       -3.5595452165        0.7060693611
 O         -0.0222063988       -1.7400812232        3.7302585182
 H         -0.1149767240       -2.3141663573        2.9549296266
 H         -0.9050652884       -1.6841349049        4.1504753184
 O         -1.0188169708        2.4639933551       -4.0281384479
 H         -1.3133162160        3.3827122678       -3.9709121736
 H         -0.9051404784        2.1573537113       -3.1110342569
 O         -0.3674166162        6.1854073969       -3.3203608244
 H         -0.6837505485        6.9386793696       -2.8056724135
 H         -0.5670529956        5.4195276005       -2.7495412318
 O         -6.7972022051        0.1975317162        1.0555754774
 H         -6.8604618665       -0.6474498134        0.5717393805
 H         -7.7010961110        0.5495771043        1.1275401620
 O          9.1864159490        3.5538457351        5.6722585073
 H          9.6309700454        3.3090214678        4.8476576849
 H          8.7084159762        2.7643934753        5.9700688188
 O         -4.6136438657       -6.2827439986       -1.4141569418
 H         -3.7270265768       -6.6915497789       -1.4252450954
 H         -4.8555495306       -6.1036042837       -2.3416918250
 O          3.6863930133        4.3368475760        1.1045103714
 H          3.9048554823        4.1985442236        2.0438014246
 H          2.7593504756        4.0728066001        0.9795181983
 O          5.0424954511       -1.4046251141       -3.6989991646
 H          4.4760144198       -0.7049875649       -4.0760190610
 H          5.7604727385       -0.9731403758       -3.1872473678
 O          0.2513099012       -4.7142670308        4.2784711098
 H          0.5121227379       -5.6293498577        4.0427754521
 H         -0.0976275334       -4.3360566724        3.4376843750
 O         -4.7646037696       -5.1227010343        5.0456022261
 H         -5.2038880141       -5.6379250441        4.3487667652
 H         -5.2995140529       -4.3024547458        5.1299245549
 O          4.0291724453       -4.8755564809       -1.4281380450
 H          4.0080930969       -4.5737221561       -0.4976141279
 H          4.9297350795       -5.2153169857       -1.5772218770
 O          2.0394131964        4.1594965891       -5.4576464220
 H          2.0637735019        4.9480595640       -4.8574867456
 H          1.2323304844        4.1702477605       -5.9859819291
 O          5.6328324004        2.4562285832        0.7592927880
 H          5.0635657576        3.2423232036        0.7044553798
 H          6.2899253709        2.6502509248        1.4520951051
 O          0.9233179863       -1.0069395537       -7.2279267075
 H          0.1115381312       -0.8776837315       -7.7469394461
 H          0.7199155879       -0.7117764815       -6.3087957256
 O         -2.7218406045       -0.2446995553       -3.1207267874
 H         -3.3553748001       -0.5851126967       -3.7648238492
 H         -2.5493947690       -0.9476280210       -2.4694307613
 O          0.4028985433       -3.5863828057       -6.2152865773
 H          0.5040852582       -2.7374594318       -6.6751591653
 H          1.3270842762       -3.9324963023       -6.1371363270
 O          2.5908100137        3.7220961727        5.8587690367
 H          2.5678508832        2.7870704138        5.6190407534
 H          2.3684691971        4.2209991252        5.0563879766
 O         -1.6502923002        2.1588961510       -8.4931651180
 H         -1.5440243512        1.1915487991       -8.5392386159
 H         -2.6002731756        2.3140875918       -8.3290208747
 O          3.6700083907        0.2992549911       -1.8576341838
 H          3.9905117701       -0.5773401403       -1.5448298459
 H          3.3922535087        0.7462677288       -1.0475922703
 O         -2.4059484580        2.4100228529        7.1045329255
 H         -2.4650396261        1.9627917199        6.2262058968
 H         -2.4988245999        1.6872924901        7.7407956842
 O          5.1557321036        3.6257112038        6.6708386049
 H          4.2112439962        3.7710063145        6.4721326007
 H          5.2169852124        2.7331506396        7.0322620115
 O          0.3099799530       -0.1719781321       -4.7723738119
 H          0.7146011992       -0.6889870869       -4.0294915017
 H          0.5010346238        0.7520884663       -4.5562043040
 O         -4.5199015698       -3.4534517459       -7.9540140794
 H         -4.3257857669       -4.0914394523       -7.2473786119
 H         -5.0331946203       -3.9273777288       -8.6069987739
 O         -2.0516844967       -0.8394382982       -5.7939371516
 H         -1.2498778579       -0.6043748980       -5.2851019680
 H         -2.2475213690       -1.7749172449       -5.5620711205
 O          0.0089784487       -5.8882678749       -1.0560101202
 H          0.6167385486       -5.9943309228       -1.8051855618
 H         -0.0035924906       -4.9281035805       -0.8624616035
 O          8.3841540392       -5.3851002716        1.6580744281
 H          7.7097765442       -5.7204308053        2.2697089187
 H          8.9353211324       -4.8098360215        2.2233435425
 O          1.7288091941       -5.4320094661        1.0256349987
 H          1.8894329349       -6.0829066700        0.3178122988
 H          2.5872216924       -5.0188606296        1.2016075462
 O         -4.3467895424        0.5855592116        2.6545585641
 H         -4.6578737590        0.3402286704        3.5478305850
 H         -4.8656607654        1.3745858258        2.4270082222
 O          7.3621998664        2.9817604559        2.7753286247
 H          7.0941191238        3.5544324106        3.5233226476
 H          8.3373499395        2.9917785672        2.7925561002
 O          8.3513628674        2.3567810198       -4.4931170202
 H          7.5539683582        1.8111006110       -4.6533816516
 H          8.0187040537        3.1631820727       -4.0644365493
 O         10.6142643497        3.6310092619       -1.1832049340
 H         11.0060644688        3.1644620601       -0.4248614649
 H          9.7796333521        4.0017853958       -0.8578528210
 O         -4.2181651828       -1.2092816745        0.5972794941
 H         -4.3434269728       -0.5698353857        1.3154287417
 H         -4.7484462952       -0.9089543619       -0.1556738863
 O          4.6172075687        4.0635519777       -6.1497559486
 H          4.7763865651        3.3071137877       -6.7297345229
 H          3.6476205377        4.1849864471       -6.1268525505
 O          0.1102244195        0.8967798171        4.3296111806
 H          0.2634005409        0.0645877969        3.8471638876
 H         -0.8724243127        0.9532648886        4.4226381291
 O         -8.4429693971       -0.3896865670       -1.3918774802
 H         -8.3771200948        0.5152857477       -1.0285661291
 H         -9.3619030815       -0.4735689345       -1.7007983527
 O         -6.7892822709        0.3000480255       -6.5196862581
 H         -7.7367488402        0.1223224302       -6.5339115000
 H         -6.6797214103        1.2254734157       -6.2497883831
 O          5.0763983213       -7.0792709438        0.8080305791
 H          4.2809570912       -7.3960919652        0.3518702412
 H          5.7222297866       -6.8969760137        0.1082813500
 O          6.6295774811       -3.6075360863        0.6926294310
 H          7.2778286831       -4.3071261045        0.9202072548
 H          6.6579250618       -3.4690506765       -0.2742520741
 O         -5.2850099851        0.4399680722        5.1612190435
 H         -6.2346423508        0.4420649576        4.9676360171
 H         -5.1315167489        1.3422892431        5.5316481696
 O          1.7913530857        5.0209596975        3.5524096658
 H          1.8651196735        4.1665463289        3.0904069400
 H          2.5642686244        5.5729431578        3.3244712907
 O         -5.6559878369        4.6381573566        4.0698098080
 H         -5.6946938701        3.8725623670        3.4550159626
 H         -5.3294423365        5.3829689122        3.5408170248
 O         -1.7074515864        4.8874203764        0.7455597680
 H         -1.0723387330        5.4624594805        1.2075353794
 H         -2.5450436938        5.3793790043        0.6867922817
 O          0.0853644247        6.4398470756        2.0619175090
 H          0.6371470170        5.9043556440        2.6739088197
 H          0.7061498337        6.9084186057        1.4945071495
 O          2.6515085016       -3.8155724260        3.2925674289
 H          3.1187137243       -4.6615166652        3.2457936150
 H          1.8114031510       -4.0124561074        3.7407150166
 O          7.1755910749       -2.1804169282        2.8063383709
 H          7.3726783871       -1.2382526278        2.6550122645
 H          6.9615088442       -2.5641289784        1.9296538744
 O         -4.7137690415       -1.2795079717       -4.9188453903
 H         -4.5202864218       -1.0694656816       -5.8505175357
 H         -5.6698801253       -1.3765860513       -4.8400548805
 O         -9.3255709409        1.1328399365        1.5644370102
 H         -9.6661621224        0.7346553172        2.3810152069
 H         -9.1696996966        2.0647816125        1.7529560830
 O          4.5235020103        1.5154767124       -7.2412216898
 H          3.5483756100        1.6253195674       -7.3957621505
 H          4.8611523293        1.0802177781       -8.0238432706
 O         -4.2982136828        3.8733483983       -4.0914152506
 H         -3.5370396697        4.1643082406       -4.6079670106
 H         -3.9602522197        3.2210496304       -3.4480734578
 O          7.2512019971       -3.1328583821        5.5817298591
 H          6.5806405166       -2.7679152601        6.1763632082
 H          7.8067306298       -2.3644629146        5.3662639746
 O          5.0531836313       -1.6969509534        6.6992496443
 H          4.8938637593       -1.7224869317        5.7312521570
 H          4.2929530907       -2.1339908028        7.1009954448
 O          0.1211484918       -6.4272323418       -5.3174481402
 H         -0.7884938717       -6.5357329819       -4.9707138235
 H          0.1183386345       -5.6321596969       -5.8576555685
 O          4.4820665503        2.7873986886       -3.8084680833
 H          4.5752946795        3.3397406540       -4.6146130329
 H          3.6045704732        2.3681098905       -3.8494466033
 O          6.4820853484       -6.0560425416       -1.4303091240
 H          6.6161605365       -6.5278015397       -2.2533250227
 H          7.2735040597       -5.4952074603       -1.3032925882
 O          5.4412971263        1.4909887124        4.4462162874
 H          6.1916614979        1.5157157437        5.0764875949
 H          4.6328201211        1.2692050507        4.9571733072
 O          2.2925649455       -2.5002730985        0.9144843732
 H          3.0956334067       -2.3500092719        0.3839488745
 H          2.5356969988       -3.0595755544        1.6766202956
 O          4.7986663059       -0.1200997333        2.4666942789
 H          5.1362939007        0.5350475493        3.1109201206
 H          4.7752460415       -0.9598921699        2.9496170266
 O         12.0169009404       -0.4995946122       -0.1133222172
 H         11.6089313634       -0.7446068637       -0.9530057850
 H         11.5945377827       -1.0505209334        0.5629360664
 O         -6.0503699732       -2.8159521674        5.4063387406
 H         -6.3183577139       -2.2459008377        4.6705559776
 H         -5.6744028204       -2.2481213085        6.0854923148
 O         -3.0150888011       -3.4563205186        6.6233522373
 H         -3.5994534263       -2.7697871951        7.0010401335
 H         -3.5978586343       -4.1583563716        6.3102964033
 O        -10.6973303627        1.8655306746       -4.4926166479
 H         -9.8998878035        2.4262501619       -4.4800230562
 H        -10.5187678522        1.2067222602       -5.1867571302
 O         -4.1524470745       -3.0348511598       -3.0522103528
 H         -3.2567365246       -3.4474613921       -2.9850298841
 H         -4.1858448498       -2.5324758774       -3.8869449569
 O         -2.7932225180        5.0264303468        5.3872423316
 H         -3.2406774562        5.2201833679        6.2099274369
 H         -1.8584166749        4.8364291095        5.5989923534
 O         -8.1928628533        3.7110095751        1.2183585408
 H         -7.6883026780        4.5093246031        0.9393084097
 H         -8.3279527485        3.1888457146        0.3964590930
 O         -5.3789444720       -0.8042286872       -1.8461565880
 H         -5.2702097212       -0.0122841956       -2.4101399298
 H         -4.7441055580       -1.4541473408       -2.1816218226
 O         -6.2824048639        3.0044872001       -2.0679744938
 H         -6.0490053336        3.9321393468       -2.2543467522
 H         -5.8956491020        2.4369037007       -2.7727381197
 O         -2.0799683295       -0.0703225420        8.2183609909
 H         -1.8877652954       -0.3862724785        9.1000021442
 H         -1.2975817711       -0.2994175222        7.6610714651
 O          6.4598658792       -5.0578515562        3.5806081253
 H          6.7786842063       -4.4460856478        4.2619174450
 H          5.7523132006       -4.6070696700        3.1098937087
 O          6.4410078794       -0.5229496653        0.3997212332
 H          5.9102159647       -0.2829829515        1.1859458832
 H          6.9663346066        0.2671394035        0.1810547297
 O         -5.3318045767       -3.3620075881        2.1166378896
 H         -5.2986815438       -3.2480526384        1.1549212085
 H         -5.9452803561       -2.6891565738        2.4756545472
 O          2.6025951762        7.1644834313        0.4841580411
 H          3.0443248122        6.9650298426        1.3286726068
 H          3.3190695157        7.3020442852       -0.1517447376
 O         -4.0312287586       -5.2943973853       -5.9242438836
 H         -3.4192990624       -5.9527111656       -5.5538201720
 H         -4.7562571729       -5.2712448805       -5.2720370196
 O        -10.7945190652       -0.0883774372       -2.6275825125
 H        -10.8092564653        0.6227692486       -3.2997936054
 H        -10.6057157676       -0.9180431716       -3.1196293540
 O         -7.7561635650        1.3139747562        4.3875932885
 H         -8.5523658298        0.7693545233        4.3292073943
 H         -8.0556468071        2.2337864676        4.5362047560
 O         -6.9223857623       -1.4551780448        3.1526330208
 H         -6.7307202101       -0.7159944899        2.5397388566
 H         -7.8350060007       -1.7226760517        2.9667303706
 O         -4.9145326229       -3.7536527900       -0.5808051130
 H         -4.5697179871       -3.3520641686       -1.3932287773
 H         -4.9042028355       -4.7170283753       -0.7584830828
 O         -5.5498880462       -5.1920280845       -3.7146228841
 H         -6.4479308769       -5.1081094626       -3.3707425043
 H         -5.0863742408       -4.3567118154       -3.4624426152
 O         10.2014047892       -1.0343889620       -2.2992338810
 H          9.9259962507       -1.3236353212       -3.1746766765
 H         10.0398525919       -0.0599257976       -2.3020034397
 O          0.2347402799       -3.1770379969       -0.7815985238
 H          0.4604633040       -2.9315260431       -1.6899120314
 H          1.0061722627       -2.9754907545       -0.2243001070
 O         -2.8166869651       -2.7159346247        2.5504735260
 H         -2.5499445952       -3.5839204842        2.9012907252
 H         -3.7609621844       -2.8187083706        2.3137634864
 O         10.9704777199        1.8091916755        0.8035728298
 H         10.0528109718        1.5719291546        0.5701943869
 H         11.5167883846        1.0650860074        0.4801677963
 O         -2.1591277930       -7.4196894238       -1.5495963708
 H         -2.0337594795       -8.0660389223       -0.8526642039
 H         -1.4373361273       -6.7657362576       -1.4257587399
 O         -4.5444304750       -0.7140081195       -7.5897055262
 H         -5.4603590985       -0.4479370427       -7.3905158940
 H         -4.5627358086       -1.6560896097       -7.8182754451
 O          0.8858701412        5.5217108300       -0.7912019239
 H          1.6187426120        6.0399628405       -0.4120399764
 H          0.1325806925        6.1306626199       -0.8135718756
 O          4.4359718547       -1.9208804477       -0.6561233178
 H          5.1459998711       -1.4288775903       -0.1981403199
 H          4.9207257988       -2.5368213000       -1.2358794254
 O          0.9658166469        3.5458396162        0.9565845705
 H          0.3482208381        3.6892658418        1.6935447412
 H          0.7848180566        4.2271069112        0.2731059682
 O          1.9395056919        1.5719480638       -7.4894984306
 H          1.5753409273        0.6701610158       -7.4902456563
 H          1.2319209471        2.1743635300       -7.2050828258
 O         -5.8411360171        5.6474496422       -2.2958515019
 H         -6.4452961642        6.0015353213       -2.9477846867
 H         -4.9178923008        5.8552609025       -2.5945141411
 O         -8.5213335567        2.2403795788       -0.9748956309
 H         -9.3237574404        2.5846246069       -1.4101950067
 H         -7.7465955880        2.5647589623       -1.4864612340
 O          8.3585995111        1.3738593532        0.0575063450
 H          8.1100154136        2.3235723797        0.0802256259
 H          8.6865462726        1.2616331492       -0.8631541793
 O         -4.6556520298        6.7839562057        2.5556169088
 H         -5.1608441451        7.5711133589        2.7550200780
 H         -3.7490611607        6.9169916463        2.9308136525
 O         10.3362330645       -1.6466190061        1.7568936202
 H          9.6780175679       -1.7478335038        1.0321246135
 H         10.2180182976       -2.4218928930        2.3250696015
 O          1.1194331612       -6.9337838179        3.1028351120
 H          1.3346740229       -6.3594364204        2.3262101769
 H          1.9842800862       -7.1546447448        3.4665480069
 O         10.9136002681        0.0210446084        3.7684782503
 H         11.8622485066        0.1442676317        3.7385303122
 H         10.6801311633       -0.5035799699        2.9713214995
 O         -2.3225757253       -6.5396146788       -4.1942340898
 H         -2.3777159151       -7.2565070024       -3.5537058713
 H         -2.2561427607       -5.7293739513       -3.6327880750
 O          6.4303002640       -3.1458200790       -1.9113251862
 H          6.8535711257       -2.2918018916       -2.0888241579
 H          6.3828878763       -3.6314955046       -2.7617706408
 O         -4.3859149295       -1.1814115239        7.1359185784
 H         -3.6463654068       -0.7329632917        7.5752655395
 H         -4.6696822590       -0.5702643016        6.4248563673
 O          8.8022207532       -4.6387723774       -0.9875002158
 H          8.7796935027       -3.6785529111       -0.7843927303
 H          9.0089087555       -5.0868067613       -0.1582035878
 O          8.9015768452       -5.2465236385       -3.6440354898
 H          8.9840916080       -5.0327518858       -2.6972996795
 H          9.7216834138       -4.9845219471       -4.0609006699
 O          5.0325998356        0.8951655804        7.5119249992
 H          5.0944187275       -0.0416918755        7.2383541203
 H          4.1941809334        0.9627810559        7.9813479484
 O          9.3480075267       -3.5710061598        3.4117603994
 H          9.3620049880       -3.8339128355        4.3323296963
 H          8.5163346410       -3.0464391014        3.2909354681
 O         -2.8870853321       -6.5612787120        1.6712091800
 H         -2.1328556735       -7.1442035847        1.4478853115
 H         -2.6358627314       -6.1010314989        2.4952524446
 O        -10.0936055892       -0.0811869606        3.9285514799
 H         -9.9026971863       -0.9739767026        3.5788663194
 H        -10.8644970882       -0.1506931921        4.4901998390
 O         -4.9924900305        1.8606494569       -0.0823201373
 H         -5.5828023329        1.2348239265        0.3825312582
 H         -5.5593593284        2.2827937009       -0.7643663943
 O         -9.7804726737       -2.3011855300       -3.6860035266
 H         -9.9854734159       -2.8910736082       -2.9491934195
 H         -8.8039338264       -2.2001712681       -3.6741722041
 O          5.1771419669        5.9206302650       -4.1153224430
 H          5.2744417756        5.5036129073       -4.9791188992
 H          4.2434958974        6.1583971270       -4.0520833877
 O          2.9295263379       -4.2078577864       -5.8303228728
 H          2.9874842036       -3.9005454549       -4.8949814118
 H          3.3298853420       -3.4900806935       -6.3528994215
 O         -9.5059362157       -0.2686501614       -5.7553140390
 H         -9.8501416467       -1.1454300272       -5.5686445621
 H         -8.8771163631       -0.0839288192       -5.0178199245
 O         -8.3452516717        3.9349484743        4.1184222331
 H         -8.4826093467        4.0478897459        3.1700659993
 H         -7.4813956895        4.3415926540        4.3052206450
 O         -5.4891426777       -6.0011736961        2.4982339935
 H         -5.4442298055       -5.0265516881        2.3861449444
 H         -4.6428490823       -6.3437654671        2.1718419474
 O          9.9964748255        2.5368389823        3.2052427662
 H         10.1924203876        1.6415359400        3.5387167626
 H         10.4944631246        2.5810779818        2.3723800370
 O         -3.3761407830        6.3002410048       -2.8749937225
 H         -2.7987984797        5.6064642163       -2.4763888570
 H         -3.2404885505        6.2324629333       -3.8221357844
 O        -11.4030515266        0.9375254855       -0.2153332644
 H        -11.1835521981        0.5845250088       -1.0982863370
 H        -10.5675243123        1.0832918151        0.2685865952
 O         -7.8476772807        0.5102419143       -3.8474397106
 H         -8.0632752334        1.4582196651       -3.8001693886
 H         -7.9752904715        0.1226368023       -2.9590369430
 O         -2.2396421036        7.0286377471        3.5632679809
 H         -1.4394348457        6.8422965857        3.0513873376
 H         -2.3354978609        6.3232162164        4.2252109466
 O          2.7920386789       -7.1460029294       -0.7892723311
 H          2.3086253768       -7.6182719434       -1.4675956872
 H          3.1811590596       -6.3571130106       -1.2319232567
 O          2.3073329005        6.0584660558       -3.6866961622
 H          2.6786119874        5.5690420316       -2.9203392901
 H          1.3773520196        6.2456280416       -3.4646873028
 O         -0.5879188999       -7.7227762801        0.9628676036
 H         -0.2416574604       -7.0514994052        0.3490534291
 H         -0.0332886011       -7.6881210358        1.7528570461
 O        -11.4192298765       -1.6172320910        0.5577590060
 H        -12.2973581042       -1.9495990395        0.7408470350
 H        -11.5163895450       -0.6611089765        0.3341918030
 O          4.4145302670       -4.6095516887        5.5465834381
 H          3.7098506501       -4.2310540968        6.1184818386
 H          5.1910373477       -4.7307343006        6.0942548150
 O          3.7969732856       -6.3935975114        3.5207698709
 H          4.5093126288       -6.7826112682        3.0062071356
 H          4.1927470412       -5.9892348780        4.3080304400
 O          3.1824479365       -3.2531402517       -3.3668071506
 H          3.9455449948       -2.6510255779       -3.4533541803
 H          3.4165051125       -3.9021196701       -2.6776213992
 O          8.5844372689       -0.8820408382       -4.7110660677
 H          7.8954915743       -1.3278472333       -5.2310645479
 H          8.7120334842       -0.0114580289       -5.0964653328
 O         -8.7336732661        5.0278244376       -2.1704206216
 H         -9.6256168521        4.6890298796       -2.0230691957
 H         -8.3902673171        5.3015251427       -1.3158376213
 O         -8.3273869925        3.1439024842       -4.1478510641
 H         -8.2984992762        3.8864984046       -3.5245290736
 H         -7.6323617279        3.2687137912       -4.8138884482
 O          4.4855191442        3.7831835158        3.5992081001
 H          4.8570345232        4.5137383298        4.0974615810
 H          5.0047056786        2.9895438678        3.8686714308
 O          8.6347236924       -0.7716785126        5.0390103364
 H          8.3167809012       -0.3970423136        4.1938111760
 H          9.5924200541       -0.6616941185        4.9827907632
 O         -6.8264340025       -6.2242738809        0.1603963447
 H         -6.0985924441       -6.5238600902       -0.4070107763
 H         -6.4477266214       -6.2511409027        1.0640227110
 O         -0.1568308229        4.6919320800        5.5447090370
 H          0.5556099918        5.3312261651        5.5552120621
 H          0.1516220556        3.9118698740        6.0713211704
 O         -6.1676727991        2.9888330326       -5.8190473739
 H         -5.6846971224        2.9704026579       -6.6577931534
 H         -5.5006143156        3.2811188324       -5.1580465520
 O         -6.1844792979        2.5092813606        2.5319259286
 H         -6.8644175948        2.9189479734        1.9611071646
 H         -6.6810331025        1.9777008314        3.1800159029
 O        -10.0737562624       -3.4540985481       -1.1058647515
 H        -10.5967454088       -2.7263442953       -0.7417031964
 H         -9.6921432834       -3.8785157113       -0.3114575319
 O          4.3051378286       -4.5852889411        1.2248051031
 H          4.5902639187       -5.5257682775        1.2172359724
 H          5.1300092540       -4.0713159796        1.0800884867
 O          6.9129755753        4.0681291520       -2.8671966784
 H          6.3763016607        3.2785588524       -2.6642491461
 H          6.3199436813        4.7514851509       -3.2127972382
 O          4.1893540089       -6.1205187608       -4.2456274290
 H          4.9730275172       -5.5580019913       -4.1366367220
 H          3.8025264258       -5.8335721963       -5.0832336379
 O        -10.8892930699        3.1535543951       -1.9161145858
 H        -11.0973860569        2.8325524358       -2.8033854947
 H        -11.4154548750        2.6261303167       -1.2964067777
 O          6.1190162933        0.9505748162       -4.8836225437
 H          5.5670664541        1.5393105909       -4.3266837808
 H          5.8260915950        1.0916802168       -5.7881781432
 O          2.1585227308        0.7755942996        7.8519660937
 H          1.6275361328        1.5838009172        7.7705329865
 H          1.5255279874        0.0605250533        7.6657889094
 O          7.8770535480        0.3818640186        2.6870518943
 H          8.3514417764        0.5250065057        1.8583435984
 H          7.4924911169        1.2559443942        2.9017543729
 O          4.8810582226       -2.3099585291        4.0910276916
 H          4.6404818196       -3.2052224700        4.3911923576
 H          5.8114820815       -2.3511454198        3.7776125713
 O         -5.3052943476        1.1604903797       -3.6579127599
 H         -4.5926959031        1.2541086479       -4.3219866563
 H         -6.1023348238        0.8213111637       -4.0986794963
 O          6.2066054632        6.5740579963        3.1983388294
 H          6.5679501429        5.9321931078        3.8367516616
 H          6.4123880944        6.2446720054        2.3044901899
 O         -3.5624708816        6.7807194280        0.0659533835
 H         -4.1567864543        6.5678021380       -0.6564575338
 H         -4.0876020983        6.7635470428        0.8902534829
 O         -4.9940744841        2.8886785080        6.1208253747
 H         -4.1178550988        3.0178201423        6.5083241357
 H         -5.1619187607        3.5980762540        5.4798970759
 O         -6.5939240198        5.6148692873        0.3453396667
 H         -5.7876947949        5.2309993827        0.7558755670
 H         -6.3832371605        5.6625389978       -0.6000854944
 O         -0.2026720855        3.1321851680       -6.5739752900
 H         -0.7599855549        2.8065045276       -7.3307647012
 H         -0.4682620056        2.6306205593       -5.7880056503
 O          2.9741819511        0.9290628864        5.3104473104
 H          2.7345177502        0.0300507348        5.0041616748
 H          2.8278014633        0.8875966894        6.2773486976
 O         -1.1064441633        7.4599271987       -0.9284156102
 H         -2.0059580322        7.2154893990       -0.6397638341
 H         -0.9136103546        8.3048615175       -0.5245003254
 O         -4.2236746653        2.1563407564       -7.6390538207
 H         -4.4500238069        1.2691456362       -7.9406560624
 H         -3.8437459359        2.0076158227       -6.7439992463
 O          9.5278388045        1.4968523772       -2.3028434719
 H         10.0615773569        2.2743790094       -2.0085920374
 H          9.1230886787        1.7801562377       -3.1559144280
 O          3.6399796799       -1.8673538937       -6.9937316640
 H          3.5173428414       -1.2915889286       -6.2148680464
 H          2.8415238879       -1.7207944352       -7.5121262776
 O         -3.2031552861        1.4786756274       -5.2962862327
 H         -2.9255824475        0.5684670117       -5.5249629048
 H         -2.4517279719        1.8370493045       -4.7866281528
 O         -3.2484796030        2.1817947110       -2.1940483356
 H         -3.0158157293        1.3041224477       -2.5777446154
 H         -3.8143050077        1.9897123306       -1.4340319442
 O          6.8847510027        4.5651412634        4.8841383194
 H          7.7937237888        4.4140559331        5.2298649197
 H          6.2976171943        4.2604617267        5.6106347648
 O          8.7123527354       -2.0012086021       -0.3141222837
 H          9.2012561444       -1.5984770412       -1.0673891921
 H          7.8830807816       -1.5041641165       -0.2065030257
 O         -7.1383567355       -2.2826469745       -0.0108186231
 H         -6.3910215868       -2.7366549916       -0.4388458687
 H         -7.6535296794       -1.8209727244       -0.6940195672
 O         -7.0807390459       -2.2378780137       -3.4205446940
 H         -6.6299320027       -1.6249562859       -2.8086960884
 H         -7.1113824905       -3.0873914590       -2.9593290233
 O         -7.5791052983       -4.5350747931       -1.9705663872
 H         -8.5064200159       -4.3090209722       -1.8313528667
 H         -7.3254101882       -5.1077155656       -1.2274315365
 O          1.6735771351       -5.9908937518       -3.2131728595
 H          1.1609809861       -6.2833288475       -4.0000417255
 H          2.6111745984       -6.0376606811       -3.4787181252
 O         -2.4626658635       -1.4858310247        4.8007324988
 H         -2.6610462993       -2.1435428913        5.4856597892
 H         -2.7794457721       -1.8682832769        3.9467238515
 O          6.3493454137       -2.2261578009       -5.8114633028
 H          5.7234352121       -2.2091891555       -6.5407921183
 H          5.8450874354       -1.8637189457       -5.0360100482
 O          7.4776556824        1.3732337896        6.1813746999
 H          7.9097547376        0.5276029184        5.9475057705
 H          6.9351327884        1.2247293240        6.9634194913
 O         -0.2164482553       -3.3452669504        6.5845713462
 H         -0.0165825374       -3.7950911831        5.7438456886
 H         -1.1658922398       -3.4643799957        6.7347907351
