  312

 H         -0.5425054112       -1.1597996585        0.9180873601
 C         -0.6112510051       -0.5412956740        0.0100749182
 H         -0.5391308395       -1.1969144470       -0.8712436600
 C          0.5103658647        0.5037878335       -0.0094871838
 H          0.3911098457        1.1518924073        0.8600966290
 H          0.3944399221        1.1152669956       -0.9056411630
 O         -1.7891825170        0.2100258093       -0.0077307041
 H         -2.5646581753       -0.3620747641        0.0026734602
 N          1.8637421187       -0.1172780949        0.0059475210
 H          1.9871272141       -0.7237037740       -0.8163106225
 H          1.9839787969       -0.6890763206        0.8531041602
 H          2.5930828886        0.6072400317       -0.0077051380
 O          1.9485717513       -2.1137096047        1.7836984735
 H          2.8139725669       -2.4886043898        1.9955774433
 H          1.3757627044       -2.2492339640        2.5648631525
 O          2.2425539671       -4.4175971211       -1.9040694941
 H          1.6879997386       -5.0390769157       -1.3528249975
 H          1.8977439704       -3.5142775724       -1.7425647050
 O          3.7302600905        1.7127718126       -0.5592188429
 H          4.6249820234        1.3157635686       -0.6417229739
 H          3.8546935313        2.6789088941       -0.4554463663
 O          0.8630014776        0.4375523384        3.0756835168
 H          1.4777286858       -0.1705186498        3.5243190523
 H          0.3196408328        0.8084820472        3.7950186577
 O          1.7843294561       -1.7398335603       -2.1606698058
 H          0.9397480820       -1.5950067817       -2.6307885877
 H          2.4879865621       -1.4543898615       -2.7785961388
 O         -2.7574909099       -2.4911336629       -0.0388536336
 H         -2.2873339511       -3.0769609214       -0.6448131320
 H         -3.3097191982       -3.0589016502        0.5407611294
 O          4.1844473262       -1.4267177555       -0.6292435322
 H          3.8745244133       -2.2566474068       -0.2189517785
 H          4.9085676754       -1.6809625049       -1.2155760131
 O          0.4506496945       -3.3709302600       -0.0615393720
 H         -0.1656171158       -3.6926387047        0.6185112293
 H          1.1394260543       -2.9146585203        0.4499677754
 O         -0.5597316046       -1.3697070156       -3.4399409713
 H         -1.0913296418       -0.5956740927       -3.1110479284
 H         -0.9315708460       -2.1740507882       -3.0002056639
 O          4.5048561752       -0.0494981253        1.6292682096
 H          5.2909166625        0.5271058081        1.5787952241
 H          4.4314510623       -0.4747935021        0.7468488596
 O         -1.9930413643        1.2864873526        2.6349460599
 H         -1.4292561688        1.7440562696        1.9833703460
 H         -1.7650529272        0.3442625613        2.6035873625
 O         -1.9826246410       -1.4803675777        2.7446156664
 H         -2.2714511444       -1.2649285095        3.6652391280
 H         -2.7726183921       -1.3631595729        2.1906471535
 O         -4.2920686064       -0.6089948278        1.4358783050
 H         -4.4748518054        0.1193322235        0.8188237059
 H         -4.9968477636       -1.2758895378        1.3051304366
 O         -4.4508523894        2.2610526245        2.2519458186
 H         -3.6073570323        1.7652570969        2.2433140866
 H         -4.3132984541        3.0564781349        1.6992981488
 O          3.5678006263        1.5987013689       -3.1915175278
 H          3.3849543115        1.6250294086       -2.2251074941
 H          2.7651640697        1.9197440460       -3.6602711004
 O          2.9341127298        1.9399722445        2.4793790904
 H          2.0862482117        1.5307044835        2.7760706756
 H          3.4870950460        1.1913766734        2.1820778316
 O         -1.9313631933        0.6759644631       -2.6621791342
 H         -1.5601286800        1.4416342504       -3.1633779594
 H         -1.8440057120        0.8367078335       -1.7074097706
 O         -4.1075325551        4.3376504567        0.5595362664
 H         -5.0405238611        4.3800112250        0.2498929024
 H         -3.6010783470        3.8992329268       -0.1573382235
 O         -2.5520589533        3.0640249720       -1.2421675640
 H         -2.9729440545        3.1188928461       -2.1337684178
 H         -1.8349198460        3.7441523257       -1.3372547185
 O          1.7821690811        3.5182329688        0.7163260200
 H          2.2282902506        2.8991968696        1.3363768637
 H          0.8254257508        3.3950312544        0.8765122145
 O         -1.2515739972       -4.0312302991        1.9733394190
 H         -1.6233036513       -3.1766353403        2.2712248921
 H         -0.5838122573       -4.2966144776        2.6108502029
 O         -4.4575833266        1.1520763282       -0.7030336154
 H         -3.6610431279        1.6980717308       -0.7463636282
 H         -4.3011558851        0.3702850657       -1.2638910339
 O          6.3065442944       -0.4926993419       -3.4640289555
 H          6.3075434842       -1.4059555497       -3.1270760484
 H          5.5472901871       -0.4315214531       -4.0529363880
 O          6.1418281844        0.7289591817       -1.0530316886
 H          6.0595176477        0.2817067082       -1.9131356589
 H          6.6068545275        1.5736999481       -1.2635969627
 O          1.2805938959        3.0488250912       -1.8814112876
 H          1.6516522202        3.2114619032       -0.9948327362
 H          1.7600950091        3.6271117907       -2.5017691197
 O         -1.2048945492       -3.5369578262       -2.1113153016
 H         -0.5261541370       -3.4961003052       -1.4046171491
 H         -0.8669357975       -4.1709805045       -2.7638234048
 O         -0.8419893675        3.0368217814        1.0021452034
 H         -1.3873028662        2.8572780961        0.2272174055
 H         -1.2456535132        3.8010584954        1.4726212761
 O          4.2339030219        4.3221703468       -0.4520555944
 H          4.4765048261        4.3302869701        0.4920590531
 H          3.4873594718        4.9390641620       -0.5735060814
 O         -0.6763971278        4.8353226203       -1.5051986071
 H         -0.4542888718        5.3039496076       -0.6761263167
 H          0.0499330629        4.2002163580       -1.7022964925
 O         -6.8968663834        1.6792100150        1.3213153983
 H         -6.0142216750        1.8477134434        1.7079038176
 H         -6.7465749802        1.2337031895        0.4526263556
 O          4.4044189177       -2.4035119544        2.9299012145
 H          4.5420574948       -1.5386829505        2.4825600908
 H          5.2741234994       -2.8302040971        2.9480395079
 O         -4.0506630176       -1.2136495387       -1.8964522703
 H         -3.5764684778       -1.6877381592       -1.1716888768
 H         -3.8860091209       -1.7514528090       -2.6953621051
 O         -4.3784073857       -4.0263765569        1.4107943572
 H         -4.0655260234       -3.9680368403        2.3286202445
 H         -5.2053079015       -3.5091289150        1.4217210461
 O         -6.3953397945       -2.2943363340        1.2792438523
 H         -6.9495280723       -1.6968952013        1.8294161549
 H         -6.5570606144       -2.0754795772        0.3235102194
 O         -5.2381119494       -0.8033101026        4.0010332508
 H         -6.1893341212       -0.8175358833        3.8170811555
 H         -4.8224344479       -0.5522441701        3.1543745346
 O          4.9471577759        3.7224154473        2.0735498369
 H          5.5469133653        2.9861453999        1.8085973708
 H          4.1290048360        3.2693075558        2.3439572680
 O          7.2619381467        3.0326437558       -1.7516498475
 H          7.3107876833        3.6365176959       -0.9969301219
 H          6.6179967724        3.4228729732       -2.3727805474
 O          3.6552925873       -3.8901023116        0.3655739032
 H          4.6017604437       -4.0706216425        0.4623366988
 H          3.3501564465       -4.2678222523       -0.4785718226
 O         -6.6050329462        3.9909574738       -0.3106383415
 H         -6.8517537557        3.2755410133        0.2979793002
 H         -6.4202281449        3.5799924113       -1.1725138942
 O          1.5274169708        2.2617916653       -4.7593937670
 H          1.4346873955        1.4730117020       -5.3024021083
 H          0.6275176978        2.4836909546       -4.4599502825
 O          6.6021508553        1.6943222311        1.5549147204
 H          7.2271009262        1.6859849283        0.8109689177
 H          7.1744033333        1.6769629924        2.3564033615
 O         -7.6421225458       -0.5026873573        2.7561958198
 H         -7.4490585465        0.3522209198        2.3204666479
 H         -8.6139195355       -0.6193310647        2.7386855536
 O          6.6315525158       -0.6644222200        3.6946626405
 H          6.6065342502       -0.6576354363        2.7183294584
 H          6.8307851608       -1.5856041473        3.9108120445
 O         -0.2310265588        6.2434364166        0.7352612603
 H          0.5619177676        6.1966173345        1.3004990972
 H         -0.9729436520        6.0519505268        1.3229994942
 O          6.9082847155       -1.0875161815        0.9314728298
 H          7.8492516972       -0.9380460387        1.1352419884
 H          6.6917148680       -0.4911192292        0.1915437574
 O          8.8473788921        1.5177311789       -0.0999768598
 H          9.0479875388        2.4349670181       -0.2951465351
 H          8.7827684023        1.0697165114       -0.9653026967
 O          2.6540208670       -0.9813978367        4.5517559839
 H          3.1966031838       -0.2416150268        4.8598940707
 H          3.2639189376       -1.5543933274        4.0619642252
 O         -4.0940770126        0.4292519390       -4.3169346561
 H         -3.4447773721        0.5723510865       -3.6075220286
 H         -3.6772504469       -0.2285758446       -4.8954375376
 O          0.3765875643       -2.4445782490        3.9582134281
 H         -0.4402719208       -2.0337494087        3.6391575952
 H          0.7495192064       -1.8433784661        4.6120814230
 O          5.0229820541        3.8705582589       -3.0196252552
 H          4.6262658085        2.9877676010       -3.1723727152
 H          4.7836563150        4.1208377513       -2.1093621072
 O         -2.3507961100       -0.5181287567        5.1604522529
 H         -1.5437464950       -0.0406606089        5.4009085223
 H         -3.0444052426        0.1603869621        5.1259590186
 O         -4.1722429264       -4.7749214295       -1.3266726519
 H         -4.4470484186       -4.5368353174       -0.4284729880
 H         -3.3202261375       -5.2175422849       -1.1902776045
 O         -4.2835841129        1.5817514399        4.9371832307
 H         -4.8649083860        0.8095113348        4.9883399407
 H         -4.4568532401        1.9471787995        4.0530508100
 O          6.0843224481       -2.8538747959       -2.2100142597
 H          6.1390960128       -3.3546435056       -1.3722734525
 H          5.4629808495       -3.3208269649       -2.8092830698
 O         -5.8052321039        2.6067328242       -2.5730272114
 H         -5.4114076710        1.9971232423       -1.9098643552
 H         -6.3042720087        2.0592763661       -3.1846873001
 O         -3.5464492775        3.6572022884       -3.6151387431
 H         -3.5494851888        4.5913674276       -3.3395577044
 H         -4.4528945226        3.3241872381       -3.4896545483
 O         -6.5283130624       -1.9319985509       -1.2604813009
 H         -6.6820761991       -2.8347057044       -1.5853061070
 H         -5.6251182425       -1.6648769830       -1.5306964977
 O         -2.5081426644       -1.5599312740       -5.4029229021
 H         -1.7273693330       -1.5328585235       -4.8227468313
 H         -3.0236876577       -2.3064759121       -5.0706638976
 O         -1.1527546765        2.5086961466       -4.3452354620
 H         -1.2595253066        1.9579514986       -5.1524249462
 H         -1.9351598359        3.0793238308       -4.3003919140
 O          2.5004310687        4.7477636531       -3.6288367254
 H          3.4678075407        4.6221053283       -3.6059891106
 H          2.1853722031        4.3242091294       -4.4329268289
 O         -2.1346690942        4.9431431003        2.3355825370
 H         -2.9790493220        4.8997379601        1.8569809989
 H         -2.2543554651        4.4935531927        3.1910165417
 O          2.2463920282        2.3107982072        5.4085694512
 H          1.8261943781        2.8818139749        4.7360350673
 H          3.0443681102        1.9651877496        5.0003536707
 O          4.0689726424       -3.5734359509       -3.7894273416
 H          3.4251134167       -3.9266370465       -3.1544184334
 H          3.8624357677       -2.6322340884       -3.9114052400
 O         -2.0132611637        3.1931136028        4.4784682050
 H         -2.0129095603        2.4466898021        3.8329200762
 H         -2.7881430875        3.0274204400        5.0261723475
 O         -0.2173108818        1.2204616175        5.4313589001
 H          0.6801642644        1.5127578759        5.6800554435
 H         -0.7439037853        2.0285413522        5.3447967736
 O         -3.8906045843       -3.1827779643        3.9634018786
 H         -3.5291723436       -3.3530313278        4.8320689679
 H         -4.4309975820       -2.3716389062        4.0544585962
 O         -3.8942742816       -3.2049752642       -3.6710760711
 H         -3.8488506956       -3.8405192835       -2.9406560332
 H         -4.8367533291       -3.1396108867       -3.9223899429
 O          1.1478261527       -0.6501429248       -5.4486403765
 H          0.5341944023       -0.8160267685       -4.7095146882
 H          1.3118497136       -1.5417319838       -5.8073846349
 O          3.4806093133       -0.8583011842       -4.0354684782
 H          3.5953528078        0.0641086161       -3.6876596151
 H          2.7785907905       -0.7766670480       -4.7090284670
 O         -7.1050072779        0.6407190237       -1.0740373866
 H         -7.7150005767        1.3292098862       -1.4074040584
 H         -7.6706956120       -0.1302626704       -0.8623231548
 O          8.7942063833        0.2859925594       -2.5476909180
 H          7.9356964770        0.1239063658       -2.9753430437
 H          9.3145326500        0.8007699794       -3.1648811423
 O          0.7426554394        3.6684816836        3.5981150287
 H          1.0941693578        4.5190827376        3.3078181288
 H         -0.1507360565        3.8135042055        3.9224784759
 O          1.7427638350       -3.2641328769       -5.5671693612
 H          1.1173543337       -3.8384731779       -5.1009490586
 H          2.6244617047       -3.5695984117       -5.3268864985
 O          6.3644104212       -3.6570932311        0.3191233315
 H          6.5343215735       -2.7215456565        0.5915592113
 H          7.1693051574       -4.1333960160        0.5294345016
 O          8.6934635016       -2.1792216495       -1.1621851127
 H          8.9800434650       -1.3506548168       -1.5647597213
 H          7.9399043645       -2.4789223376       -1.6828786391
 O          1.6330772816       -5.1853453638        1.8549737197
 H          1.9204338649       -5.1797149579        2.7821118466
 H          2.3250821923       -4.6977062623        1.3817877313
 O          4.7519856429        0.7735486731        4.9869178270
 H          5.3853604045        0.2339405879        4.4632701861
 H          4.9754470726        0.6482642542        5.9100934967
 O         -6.5542148710       -0.1786745586       -3.5934124566
 H         -6.5720252419       -0.0610489160       -2.6213008689
 H         -5.6445580237        0.0605998337       -3.8923988163
 O          2.2282620767        5.9922447106       -1.0722373028
 H          1.3905078119        6.3290994149       -0.7432454091
 H          2.1359842634        5.8567771659       -2.0236117287
 O         -1.9222223931       -5.7368491509       -0.0373632346
 H         -1.8031883511       -5.1061267002        0.7005268941
 H         -2.2217704074       -6.5529383688        0.3637339887
 O         -6.8608595634       -4.5018515312       -2.0596402353
 H         -5.9667167201       -4.8438299787       -1.9140118840
 H         -6.8889705310       -4.1600308700       -2.9653473292
 O          2.0195955784        5.6999717604        2.1434754962
 H          2.8355287830        6.1847656138        2.0307776367
 H          2.0528306437        4.9191141319        1.5312721818
 O         -9.1754370970       -0.9918425318       -0.5372718798
 H         -9.4189682147       -0.8745581444       -1.4758456233
 H         -9.0418652207       -1.9512534106       -0.3945017831
 O         -8.9426533771        2.4966770178       -1.7693753675
 H         -9.4254198018        2.2860361756       -0.9399491290
 H         -8.6901029224        3.4207290728       -1.7128848189
 O         -6.4918648582       -2.7423708655       -4.1581731561
 H         -6.5649737845       -1.7924101338       -3.8618785055
 H         -6.8249197516       -2.7475165853       -5.0527030433
 O          9.0379683168       -3.0077905402        1.4389138221
 H          9.5157491810       -2.2523168719        1.8022820084
 H          8.9845089067       -2.8150147865        0.4842467360
 O          0.4035626777       -4.9523981374       -3.7804104445
 H          0.2462058853       -5.8942452313       -3.8196180708
 H          1.1613015966       -4.8245924290       -3.1651789533
 O          9.3575379435       -0.2566765200        1.8731965598
 H          9.2483770357        0.3000163274        2.6517870150
 H          9.4376392531        0.3650329618        1.1308968678
 O         -9.6441588380        1.4531249595        0.5968287385
 H         -9.5155847249        0.5617430787        0.2190176071
 H         -8.8198280863        1.6759054818        1.0499065833
 O         -9.3480914699       -0.0733687879       -3.0820046145
 H         -8.4732656340       -0.1562929613       -3.4843318305
 H         -9.4738696025        0.8661316712       -2.9067971715
 O         -1.1446566975        0.7326014685       -6.3503457891
 H         -0.2973003824        0.2668127630       -6.3030789701
 H         -1.8230669627        0.0489252221       -6.3042071035
 O          0.7844108501       -6.1359411976       -0.5682681927
 H          1.0727050563       -5.9863590745        0.3484963333
 H         -0.1728123558       -5.9705255647       -0.5543990672
 O          8.1089518767        1.6035183578        3.7375237928
 H          7.7265778435        0.7631481079        4.0391263682
 H          7.5759454372        2.3019709945        4.1743979257
 O         -8.6570799845       -3.5867934351        0.0254028245
 H         -7.9798178915       -3.5101359919        0.7093052365
 H         -8.2542876141       -4.0773903491       -0.7023637147
 O          6.1118326985        3.1862021253        4.5302137395
 H          5.4892466120        2.4806174962        4.7629052513
 H          5.7131946789        3.6445464891        3.7742028421
 O          7.0191788172       -3.3017126148        3.1945120034
 H          7.1298925206       -4.1690644163        3.5798009112
 H          7.7490518754       -3.1883166262        2.5417818100
 O        -10.2630215211       -0.7436944255        2.2796822166
 H        -10.4854080338        0.1218130497        1.9106157660
 H        -10.3484052894       -1.3776848817        1.5616923434
 O          2.6007642823       -4.3086722509        4.2340809626
 H          1.8461887963       -3.7385338483        4.4182935157
 H          3.3102014719       -3.7378484828        3.9176602042
 O          7.5399683987        4.3371189418        0.7218356025
 H          8.1574884844        4.2321059765        1.4474571292
 H          6.6938232214        4.5713678572        1.1147742096
 O         -3.1749446167        5.9154451121       -2.1686521763
 H         -2.2239196664        5.7808990459       -2.0467738990
 H         -3.5571036824        6.0130948518       -1.2934690607
