  301

 H          0.0000000000        0.0000000000        0.0000000000
 O         -0.1082285935        1.4755080459       -0.4053801937
 H         -0.3691762057        1.9554131884        0.4112668283
 H          0.6030159299        2.0142376123       -0.8069651771
 O          2.4584740465        2.4430338377        0.9284838588
 H          2.9035008544        2.2207174457        0.0932496293
 H          2.8663398790        1.9328874531        1.6427239120
 O         -0.9834439914        3.1638752589        1.4782610272
 H         -1.2631927859        2.7404069084        2.3112941742
 H         -0.2146104515        3.7278565366        1.6792129143
 O          1.6994838975       -0.3372219358       -1.6945437504
 H          2.5959446282       -0.5859196186       -1.9858686523
 H          1.2121815258       -1.1780933227       -1.7355693704
 O          2.3753004072       -0.2446475799        0.8398749407
 H          2.0932424340       -0.1784547464       -0.1020128058
 H          2.1433824743       -1.1470109228        1.1335895786
 O         -0.2273589007       -0.9319804706        0.3612374868
 H         -0.8548136466       -0.7271075024        1.1686333474
 H         -0.9042611279       -1.2796352009       -0.3323762929
 O          0.1763600073        1.5474125062       -3.1451273895
 H          0.8793007366        1.0021684446       -2.7569438868
 H          0.4193177696        1.7688846307       -4.0563395958
 O         -2.3046578449        2.2230503160       -1.7005127243
 H         -2.4138016358        3.1078685556       -1.3089965787
 H         -1.4107551531        1.9208888360       -1.4214152144
 O         -3.9421948720        1.7071997984        2.1394016699
 H         -3.2351261358        1.9020059427        2.8006088387
 H         -3.5031550997        1.1900462193        1.4340034796
 O          0.4384047708        0.9248279115        2.2573302247
 H          1.2378625826        0.7398233477        1.7260004205
 H          0.5808363202        1.7636767998        2.7255517539
 O          2.1581724093        4.0465877406       -3.9273715013
 H          1.3199200721        4.4485894959       -4.2484687407
 H          1.8896134942        3.6254912147       -3.0745104627
 O          1.3703154181        3.4617479059       -1.4701646259
 H          2.0760355746        3.9284597557       -0.9917027592
 H          0.6359225864        4.1039768553       -1.5724118135
 O          3.7155013973        1.8465035940       -1.4273762127
 H          3.2654547580        1.4215972326       -2.1767443018
 H          4.1286995032        2.6474840328       -1.7969438947
 O         -3.5805722430        0.4840930462       -0.1861387642
 H         -4.5502701612        0.4900376955       -0.2479658363
 H         -3.2292576448        1.1837509375       -0.7873392343
 O         -2.0995716160       -1.3899487927       -1.1822476510
 H         -2.7441614568       -0.7764304618       -0.7441949697
 H         -1.8636701182       -0.9268044298       -2.0449351660
 O         -0.4071124991       -3.7966368002        0.7476046373
 H         -0.1682260619       -4.6800964232        1.1138450246
 H         -1.3651951739       -3.8635167038        0.5890221648
 O         -2.0521975597       -0.5521200993        1.9794584753
 H         -2.8326740590       -1.0732045842        1.7248554782
 H         -1.9530136120       -0.5801736608        2.9555068620
 O          1.3213381557        4.6203443899        1.7225209658
 H          1.7939949476        3.8277177567        1.3560691992
 H          1.8051446951        4.8751804134        2.5102213330
 O          1.9027647143       -2.7151114112        1.6170778043
 H          1.0581286451       -3.0939590293        1.3490624946
 H          2.5726034326       -3.0911763198        0.9966677854
 O         -5.1048497853       -1.9499984265       -1.1490583593
 H         -4.8015442496       -1.4680418917       -1.9441570803
 H         -5.2743458098       -2.8788881251       -1.3831160267
 O         -1.9299338220        2.0367535993        3.7749606261
 H         -1.8029057973        1.1262619398        4.1023022778
 H         -1.9911181589        2.6018151439        4.5672913316
 O         -2.5349925395        4.4815656658       -0.1557514738
 H         -1.9980793853        3.9758180344        0.5035106183
 H         -3.4627262292        4.2880698406        0.0674910378
 O         -4.3909414534       -0.2310671001       -3.0947943887
 H         -3.4278330663       -0.1051604873       -3.2278847488
 H         -4.7070219799        0.5763926908       -2.6451784637
 O          3.4167700113        1.0493043826        3.1354999840
 H          3.3807999242        0.0800770483        3.2665015559
 H          4.3448812844        1.2403764950        2.8889891310
 O          0.6403643485        3.0746099527        3.9153440551
 H          1.4965368880        3.5158702863        3.9922754067
 H          0.5585342045        2.4792075773        4.6983462739
 O         -1.7199834448       -0.1852851745       -3.3662773515
 H         -0.9898461412        0.4920514654       -3.2891089240
 H         -1.4715618901       -0.7886073474       -4.0918610816
 O          1.0098253814       -2.8939938280       -1.4157596967
 H          1.9340954669       -3.1494326532       -1.2457179611
 H          0.4952305622       -3.2092893801       -0.6512684511
 O         -4.2991306671       -1.9527153625        1.3777653957
 H         -4.4850987778       -1.9058030383        0.4150038889
 H         -4.8880795769       -1.2823033283        1.8048744593
 O         -0.5818538142       -2.7874901095        3.3344221685
 H         -0.1334461307       -1.9757501373        3.6800139056
 H         -0.5141260832       -2.7953343156        2.3709437933
 O          4.8591422580        0.0662157958        0.1775326105
 H          4.6669681857        0.7782038927       -0.4672978144
 H          3.9743371198       -0.1218426011        0.5758181071
 O         -2.9521613559       -4.4334134163        0.3982402051
 H         -3.8178097628       -4.5143587144        0.8314417087
 H         -3.1252278342       -4.1726234334       -0.5253539635
 O          0.7644318787       -0.7039648464        4.1588501613
 H          1.6937450103       -0.9489393327        4.1100180130
 H          0.5867792616       -0.0763784436        3.3927018102
 O         -1.9747640372       -0.5259080527        4.5880299710
 H         -1.3751082065       -0.9815247395        5.2223265397
 H         -2.8846049230       -0.7418583627        4.8490115879
 O          3.3067964745       -1.6317651462        3.5427476333
 H          4.2187270761       -1.9174113692        3.3448596451
 H          2.7673287094       -2.1389657355        2.9045323974
 O         -5.7672444698       -0.1164153008        2.5511713604
 H         -5.1062527935        0.6226979840        2.5146742846
 H         -6.3599944134        0.0513959374        1.8067332748
 O          4.1669272207       -1.3674589623       -2.0167933299
 H          4.5728337414       -1.1025148931       -1.1718042776
 H          4.4262900321       -2.2931889095       -2.1982965560
 O         -6.3654101531        0.2041005548       -0.1201859257
 H         -6.5126379430        0.8352535904       -0.8343902776
 H         -6.2245155730       -0.6629573502       -0.5373532547
 O         -4.9601672147        3.4484731178        0.4259367311
 H         -5.6266019240        3.9928547586        0.8414769846
 H         -4.5846494352        2.8679744687        1.1361034539
 O         -2.8092353964       -3.6399617990       -2.1983025172
 H         -1.9389320672       -3.9493539355       -2.5514422858
 H         -2.6138321288       -2.7640522348       -1.7887595696
 O         -4.5872023133       -1.3690292626        4.7856558864
 H         -4.2284551587       -2.2154180129        4.4669367534
 H         -5.1602535290       -1.0186558368        4.0910790638
 O         -3.1687548757       -3.3288463030        3.4766127555
 H         -2.2261757140       -3.0767057906        3.6178687555
 H         -3.4198813826       -2.9471365119        2.6216530337
 O          2.0937422037       -3.2855074851       -4.2885349687
 H          2.9605882659       -3.0361353496       -4.6722903877
 H          1.6518208685       -2.4102948220       -4.1207165816
 O          0.9210801031       -0.9829624404       -4.2902811860
 H          0.6518971843       -0.8491484296       -5.2145072798
 H          1.6693267105       -0.3724011504       -4.1376024372
 O         -0.4241361997       -4.4154400184       -2.9526754072
 H          0.1949628229       -3.7398345904       -2.5890918793
 H         -0.3046938719       -4.4561835057       -3.9052345125
 O          2.9522944525        0.7711101053       -3.8709389025
 H          3.8383139419        0.3607765445       -3.9680963277
 H          2.9136496667        1.4271700544       -4.5836205417
 O         -0.3196361391        4.8399621353       -4.4543984103
 H         -0.9838715935        4.1246736430       -4.4321237924
 H         -0.4080708454        5.2701410299       -3.5898445662
 O         -2.1398110554        2.8228578671       -4.3336444825
 H         -2.0427769372        2.4613361396       -3.4293072021
 H         -2.1057695515        2.0667566911       -4.9636544979
 O         -0.4690817105        5.3746391953       -1.7517023242
 H         -1.2984782649        5.1859271950       -1.2922116932
 H          0.0225321343        6.0048388584       -1.1740761832
 O          3.4145384578       -3.5496049729       -0.3076962780
 H          3.3392300359       -4.5172503836       -0.2356481675
 H          4.3581419859       -3.3112476109       -0.2597677091
 O          1.1970445627       -4.6831500579        4.0577292972
 H          0.6464896904       -3.9155176749        3.7910618758
 H          0.9195646896       -5.3929391629        3.4612951467
 O          2.8242293879       -5.2814531032       -2.5913062700
 H          2.1037455305       -5.8449641356       -2.2982719574
 H          2.4417379422       -4.6185193678       -3.1945575612
 O          3.2578506251        2.1597051249        5.5119838554
 H          3.3108204427        1.6976931775        4.6366338399
 H          2.3808337343        1.9266193057        5.8648799751
 O          0.8137241039        6.7185312069        0.1353986071
 H          0.0244105756        7.0783651403        0.5724239746
 H          1.0424049347        5.9449725907        0.6899183911
 O          3.4219572007        4.9763507436       -0.3579149426
 H          3.8378771703        4.6454761729        0.4646391928
 H          3.0206079336        5.8268750705       -0.1652217083
 O          5.8504951810        1.4733303199        2.1287385096
 H          6.2534167247        0.8616472362        2.7864799698
 H          5.5722067316        0.8848056100        1.3757700644
 O          4.6404400339        4.0739849489        1.9018517005
 H          5.0618864206        3.2102018123        2.0120248883
 H          4.1228680523        4.2179802193        2.7082310261
 O          4.5969083186        4.1099538829       -2.6612978059
 H          4.3905435590        4.6248115338       -1.8643564379
 H          3.8427377525        4.2634546681       -3.2514946541
 O          0.4520760813        2.1939777903       -5.8459775705
 H         -0.1043235602        2.9720858492       -5.9339239595
 H          1.3417203642        2.4383618744       -6.1295518049
 O         -5.3844611463        2.0269735514       -1.9293653901
 H         -5.2251860736        2.5918315348       -2.7089110416
 H         -5.2007122912        2.5843794314       -1.1553950601
 O         -4.6713465661        3.4342217063       -4.1154474024
 H         -3.6982259287        3.2545624883       -4.2274025377
 H         -4.7835772718        4.3772092888       -4.2206922827
 O         -3.9984736227       -2.8396446634       -4.4567764749
 H         -3.6851336690       -3.1487331808       -3.5776050300
 H         -4.5814016170       -2.0928412125       -4.3012266002
 O         -1.5581719461        6.6182689366        1.5086349172
 H         -1.9745699761        5.9549939665        0.9378270486
 H         -1.3144420715        6.1708302715        2.3288201957
 O          5.5029148091       -2.7779397521        2.5099474202
 H          5.7795066809       -2.7548415126        1.5832669896
 H          5.0035128968       -3.6075604073        2.6190629674
 O         -1.2071766578        4.9978054904        3.9036119435
 H         -0.5208286489        4.2948879981        3.8401273539
 H         -1.4988143071        4.9648895137        4.8196405407
 O          3.0582549815        4.4024899278        4.1890287098
 H          3.2218313539        5.1838845743        4.7150256381
 H          3.2668711867        3.6191091382        4.7726703871
 O          0.7046094500        1.3340321970        5.8693049538
 H          0.7153351714        0.5011447022        5.3456470525
 H         -0.0536246440        1.2324362496        6.4772561134
 O          5.4696365194       -0.1236440781       -3.9212711630
 H          6.0101556694        0.6056053384       -3.5906895983
 H          5.1685993456       -0.6140400064       -3.1224833692
 O         -3.5823148010        4.6018645251        2.7310134397
 H         -2.6702312142        4.6393517491        3.0973670367
 H         -3.8665226241        5.5143393911        2.6679547833
 O          3.6378392204       -4.7575282225        2.6883106323
 H          3.3283938480       -5.2946604193        1.9491041230
 H          2.8844123276       -4.6869473220        3.2961360552
 O          6.4713872601        1.9691992704       -2.3954497490
 H          6.7306145190        2.3024836557       -1.5145555351
 H          6.0007492910        2.7154697746       -2.7857543371
 O         -0.0851418618       -6.0871827640        2.0477262170
 H         -0.1043581738       -6.8710479518        1.4954425068
 H         -0.9560459116       -6.0588778207        2.5074677388
 O         -0.5414530718       -1.8427717614        6.4018823238
 H          0.4202820473       -1.9065257886        6.2771611948
 H         -0.8608342708       -2.7563272317        6.3082979628
 O          2.1785117894       -2.5465122714        5.9000938980
 H          2.7244369047       -2.2833063565        5.1387418070
 H          2.0128099884       -3.4845690676        5.7792320710
 O         -3.9536291619        0.9607849105        6.1874932189
 H         -4.3914172809        0.1420816161        5.9303726435
 H         -4.2644502813        1.6518850386        5.5805482863
 O         -2.3579889613        0.8397545193       -6.1088695699
 H         -3.3348990574        0.9087136741       -6.1043654348
 H         -2.1685675226       -0.0818104333       -5.8881886657
 O         -1.7323430706       -1.8432422537       -5.4694403341
 H         -2.5867019206       -2.2487264372       -5.2124387723
 H         -1.0893286652       -2.5661889164       -5.5597140689
 O          0.2527644471       -0.3043998743       -6.8608102498
 H         -0.5920842775       -0.6257858010       -7.1802775147
 H          0.1056306418        0.6231575337       -6.5926903139
 O          6.3711763853       -0.4552117241        3.8290434318
 H          6.2909555663       -1.3314520031        3.4291578951
 H          5.7823321670       -0.4525191388        4.6003812530
 O          4.4362903647       -0.3783033738        5.8269040365
 H          4.1673754531        0.5317282843        6.0139041382
 H          3.8412110522       -0.9597451086        6.3054639338
 O         -2.4971789906       -5.8952103194        3.1587880222
 H         -2.8115512242       -4.9692220147        3.2626540040
 H         -3.1063263940       -6.3412491327        2.5694630347
 O          0.4428906986       -6.2569834323       -1.1528282627
 H          0.0968583538       -5.6408711200       -1.8238713955
 H         -0.3613590485       -6.6307872888       -0.7381142600
 O          6.0330178712       -2.8209644276       -0.2636589070
 H          6.4185072572       -1.9505637112       -0.4878017098
 H          6.2704288196       -3.3957771153       -0.9984853933
 O          4.3547208359       -2.2746923780       -5.3101206791
 H          4.9499197311       -1.6524172239       -4.8695494204
 H          3.8986885610       -1.7162528001       -5.9628085235
 O          5.0910711231       -3.7827191811       -2.7665911831
 H          4.3862655876       -4.4381333943       -2.6329097181
 H          5.1396449952       -3.6312220892       -3.7148863079
 O         -1.0618436609       -4.4693620136        5.7441074568
 H         -0.2124413245       -4.7055459034        5.3411698756
 H         -1.7322334895       -4.9589036457        5.2644308915
 O          6.8707266248        2.9773826168        0.0796417408
 H          6.7106112065        2.4489856146        0.8793039177
 H          6.4158276005        3.8101349139        0.2200574636
 O          7.1958282169       -0.4977531025       -1.0775920923
 H          7.6095993608       -0.0948507331       -0.3134605868
 H          6.9312618228        0.2357631897       -1.6481800968
 O          3.1694979592        2.6317114682       -5.8318049031
 H          4.0800987028        2.8742744114       -5.9956649996
 H          2.8337156371        3.2611599810       -5.1311184849
 O         -1.9323975407       -6.8996116048       -0.0925216045
 H         -2.2447320004       -6.0309238654        0.2247786004
 H         -2.4415373544       -7.0372339429       -0.9076021113
 O         -1.4831461926        0.7605756394        7.2585365831
 H         -2.3936769308        0.7728648991        6.9034849411
 H         -1.2388316117       -0.1727262387        7.3110310413
 O         -4.7777873396        3.0330716591        4.5812276783
 H         -5.5851403852        2.7129673585        4.1791891797
 H         -4.3276493344        3.5720596988        3.8959433292
 O         -5.3689035437       -4.4281271600        1.6291329007
 H         -5.2392005335       -3.4593518365        1.5914957867
 H         -5.5270871496       -4.6477766347        2.5475040740
 O         -3.4123488101       -6.2918614707       -2.3375958309
 H         -3.1425077248       -6.4703652983       -3.2443558695
 H         -3.2173425626       -5.3464434803       -2.2503722864
 O          2.9937311975       -0.3461812930       -6.7054799527
 H          3.1818701569        0.5918914767       -6.6242855576
 H          2.0542925041       -0.4197603103       -6.9241270357
 O         -5.4877713539       -4.6100968554       -1.2791811946
 H         -5.0534711185       -5.3719899954       -1.6850054224
 H         -5.7356293544       -4.8568222192       -0.3832218052
 O         -2.1681069672        3.4251283210        6.0718913716
 H         -1.8592455189        2.7695647681        6.7085336913
 H         -3.1299515259        3.3982058101        6.0985582285
 O          0.0295968049       -3.9509212197       -5.7341638123
 H          0.8864214483       -3.7280499863       -5.2741915127
 H          0.2560663113       -4.0875233130       -6.6524648114
 O          2.6681780367       -6.0598586793        0.3351576991
 H          3.1805222524       -6.8006752369        0.0133343716
 H          1.8057389419       -6.1014110858       -0.1322017966
 O         -4.9644894408        0.9984157857       -5.5086848236
 H         -4.9309400803        0.4508653610       -4.7079615689
 H         -5.0821999282        1.9054599026       -5.1960041182
 O         -2.5124344692       -5.2673280390       -4.8248912028
 H         -1.7532579433       -4.9788135502       -5.3384601347
 H         -3.2063899907       -4.6141653121       -4.9639112881
