  536

 H          0.4630930062        1.1941018712        0.8323460540
 C          0.5529029251        0.5095391591       -0.0251075500
 H          0.4633422618        1.0989788654       -0.9466437867
 C         -0.5779261556       -0.5149491788        0.0205351992
 H         -0.4518489789       -1.1270250342        0.9278130407
 H         -0.4840888625       -1.1748676083       -0.8448924456
 N         -1.8603249349        0.1647714722       -0.0623318489
 H         -2.6131013104       -0.5138493359       -0.0751527222
 H         -1.9956533598        0.7570090790        0.7508156532
 O          1.7808080357       -0.1833447253        0.0209865488
 H          2.5006910973        0.4507196476       -0.0567178903
 O          1.7380740680       -1.7689442449       -2.1228154160
 H          1.6997709274       -1.2776501252       -1.2731120364
 H          1.9041557446       -2.7066477301       -1.8839414861
 O         -3.4787783516       -3.5076464898       -3.9179561686
 H         -4.3339946322       -3.1599164801       -4.1967306426
 H         -3.5961127037       -4.4603266475       -3.8249552511
 O         -0.5157519789       -1.2990194594       -3.4023323948
 H         -0.7095549813       -1.9539190076       -4.0998302019
 H          0.2746796870       -1.6169179626       -2.9200057375
 O         -3.0564406403       -0.9905842894       -2.5852007055
 H         -3.3415007003       -1.0960368733       -3.5047732887
 H         -2.0845771057       -1.0042618236       -2.6635865988
 O          3.5055995107        1.5933374123       -0.9037774651
 H          3.9060848953        0.8335661822       -1.3682949758
 H          2.7902139088        1.9212079135       -1.4930393395
 O          4.2323041455       -0.7673975250       -1.8944178330
 H          3.5186506483       -1.3037878469       -2.2800466491
 H          4.3926832880       -1.1981441592       -1.0315193593
 O         -2.9832800161       -5.6447275349       -0.2869743256
 H         -3.0376476313       -4.7018359553       -0.5485285117
 H         -2.3118399681       -5.6844141999        0.4070175173
 O         -1.1431420683       -3.9798958089       -2.4835914411
 H         -1.9680538407       -3.6845099518       -2.8972587947
 H         -1.1692279937       -3.7463749187       -1.5293465536
 O          0.0709923398        1.2209264748       -3.9809155689
 H         -0.8164342002        1.6120641132       -3.9123316511
 H         -0.0710154116        0.2641264722       -3.8174716467
 O          1.4447870965       -2.7142219913        0.7031353706
 H          1.3670866263       -1.9733300288        1.3323310672
 H          1.6470076851       -3.4933350316        1.2696139394
 O          3.4190002833        0.3646248018        3.5275553521
 H          3.6916243929        0.9569064752        2.7849347347
 H          3.1669437848        0.9994490014        4.2341182932
 O         -1.4933017714        2.2974518950       -1.7171587844
 H         -1.4939627273        2.8761682684       -0.9342196206
 H         -1.5434021732        1.3969403147       -1.3324899142
 O         -4.0112003932        1.4438266857       -1.7959350610
 H         -3.7405337162        0.5243817557       -1.9940552445
 H         -3.2431728904        1.9743899037       -2.0746402756
 O          1.3187843555       -1.0800580235        2.8805763154
 H          0.5503796592       -0.4882065032        2.8434271619
 H          2.0870264027       -0.4801206566        2.9774845675
 O          0.2548823378        1.4510554222        3.2090992356
 H          0.5001958633        1.4073814824        4.1449650546
 H         -0.6937297617        1.6714391472        3.1826947828
 O         -1.1284991411        6.4562391326       -0.4789589115
 H         -0.6510936718        5.6143145634       -0.5930302688
 H         -1.0980998901        6.9260618531       -1.3469654155
 O         -3.7131730994       -3.1919686227       -1.0819525166
 H         -3.4763045738       -2.4370088706       -1.6559445204
 H         -4.5042457027       -3.5997847779       -1.4890803759
 O         -0.3640231914       -3.6558740581        3.5050473216
 H          0.5489615251       -3.8919903725        3.2598490370
 H         -0.5140386674       -2.7275018081        3.2330564943
 O         -1.3733042658       -1.2115192652        3.0746791289
 H         -2.1329739873       -1.5553259941        2.5817754433
 H         -1.6238175019       -1.1657778962        4.0073858568
 O          1.5025837215        3.1689593814        1.5211082429
 H          1.0126320265        2.6655575138        2.2011451930
 H          1.5783610582        4.0795636534        1.8648480663
 O          0.3616386459        4.1756149356       -0.6737857124
 H          0.5557049827        3.7178706061        0.1668020734
 H          0.7399380888        3.5950334450       -1.3709296892
 O         -0.9842607856       -3.6420396636        0.1146597283
 H         -1.6179411276       -3.1689141557        0.6745532851
 H         -0.0938785691       -3.2784374880        0.2870027641
 O          6.1104825631       -0.3844474417       -3.6877854230
 H          5.8103485858       -0.1515252751       -4.5874582399
 H          5.3303445812       -0.4992367244       -3.1032555792
 O         -0.7024614772        4.2159497717        2.8060719258
 H         -0.9404847269        4.0281451968        3.7233010550
 H         -0.7376991754        5.1811192614        2.6684429599
 O         -4.8566161359       -0.8769080572       -0.1868332768
 H         -5.4723050969       -0.2463044729        0.2352154975
 H         -5.0654968205       -0.8377971394       -1.1387858493
 O          1.6269127527        2.6316751828       -2.3958550419
 H          2.1944934666        3.1816430706       -2.9770460164
 H          1.0523202918        2.0814573194       -2.9739991127
 O         -3.1469896921       -2.6575631980        1.4951295077
 H         -3.5174329454       -2.7726838789        0.5982630446
 H         -3.4467048102       -3.4212178776        2.0246610353
 O          3.9351302142        2.2255725141        1.8110023486
 H          4.5626654814        2.0338443653        1.0896708905
 H          3.0529486356        2.4541685457        1.4453048028
 O         -5.9394865351       -0.5312455980       -2.6119307061
 H         -6.7633751243       -0.2423839539       -2.1914093697
 H         -5.6724759549        0.2087044343       -3.2061173856
 O          6.0486939387        2.0605685055        0.1868826433
 H          5.9768124664        2.0046704167       -0.7858105459
 H          6.8627386718        1.5894481514        0.4517466992
 O         -6.5137560248        0.6351913823        1.2066966649
 H         -6.1912568051        1.0006481053        2.0537188756
 H         -7.1389178468        1.2864820053        0.8372716371
 O          0.7498969670        0.7791902699        5.8848895718
 H          0.8359528969       -0.1843134982        5.7979459653
 H         -0.1050804973        0.9556298490        6.2846654702
 O         -5.4345544182       -5.6111407403        0.8835922217
 H         -4.6522846803       -5.7980712622        0.3315710956
 H         -5.6521372625       -4.6635853002        0.7130776554
 O         -6.5304678374        2.3477801460       -1.8705213231
 H         -5.6501315325        1.9246873474       -1.9010528071
 H         -6.3510572470        3.2984075899       -1.7168375468
 O          1.4988065940        4.3137233456        4.7610999392
 H          0.6159145556        4.2055073729        5.1375318640
 H          1.4063458918        4.8458984950        3.9645245889
 O          2.4227394012       -0.4047875785       -4.4228957817
 H          2.9748956699        0.3692861849       -4.1725500316
 H          2.1218136928       -0.8419370901       -3.6112171320
 O          2.0084309309       -4.3427706973       -1.4846377833
 H          1.3235524860       -4.6871771418       -0.8900683267
 H          1.7740540733       -4.6098510740       -2.4002515105
 O         -4.2244605995        2.1314411330        0.7418704218
 H         -4.2087609089        1.8190637020       -0.1918223694
 H         -4.2859410775        1.3473071157        1.3071861807
 O          3.9688611094        1.6316117206       -3.8924707796
 H          4.6357194587        1.7621623230       -3.1937719841
 H          4.2858237842        2.1791215190       -4.6248602250
 O          2.9960926935        2.2130289355        5.3752125280
 H          2.3172298255        1.7517195288        5.8857605040
 H          2.5462740132        3.0323284432        5.0752216363
 O          1.9664368545        5.7909632496        2.1657165646
 H          2.8396676744        5.5675912204        2.5351305576
 H          2.1270297447        6.0160697551        1.2244538910
 O          5.4772931433       -0.3188433473        1.8125793555
 H          4.6961062512       -0.7949696866        1.4673445333
 H          5.9646192542       -0.9877525817        2.3414522912
 O          4.2731592114        4.1567713698       -0.6333961495
 H          4.8167227958        4.2252253373        0.1517513691
 H          4.0431462304        3.2144998792       -0.7414189903
 O          2.2987967335        5.9237460403       -0.5246428019
 H          1.5174516734        5.3209649247       -0.5418762971
 H          3.0584731424        5.3071819318       -0.6175611956
 O         -2.8771421737       -1.0869107025       -5.3698276734
 H         -2.4522460996       -1.9624772857       -5.3653392112
 H         -2.2727017373       -0.5059602881       -5.8544812398
 O          4.0202883053       -2.0534815823        0.4486531724
 H          3.0648200939       -2.2641350376        0.4334666383
 H          4.4741973888       -2.8302885889        0.8103222200
 O          5.3617450621       -4.2126729938        1.5092129974
 H          4.9860016240       -4.7763787859        2.2117174871
 H          6.2745204227       -4.5376553282        1.3351036729
 O          5.8912934126       -3.4946775294       -1.5148069941
 H          6.0008777114       -2.6776413487       -1.0024500406
 H          5.0821907116       -3.3797326182       -2.0677726017
 O          6.5555837064       -1.1541085754       -0.3932321849
 H          6.1892681235       -0.6944579012        0.3945102034
 H          6.8428405905       -0.4916264822       -1.0381024469
 O         -3.4732762576        5.2890390250       -0.5093457482
 H         -2.7251781841        5.9223066769       -0.6014224156
 H         -3.0154761713        4.4823747453       -0.1756666040
 O         -6.1133878272       -2.5926017913       -4.2630177409
 H         -7.0799115495       -2.7414769765       -4.3390148398
 H         -6.0227839562       -1.8499874430       -3.6199293208
 O         -1.9846445979        3.4321493686        0.6445649686
 H         -1.5081462544        3.6756927811        1.4643756250
 H         -2.7480787689        2.8749302610        0.8914231452
 O         -6.0639564473        4.9345080366       -1.4371766975
 H         -6.7115849238        5.1665899458       -0.7535807951
 H         -5.1890259608        5.1215301323       -1.0583341147
 O         -5.5340707327        4.0904629646        1.9513494466
 H         -5.0576736700        3.3808914393        1.4772729742
 H         -4.9183589481        4.8088926499        2.1127516200
 O         -3.8906943438       -0.0644359717        2.2526500921
 H         -3.9405693396       -0.6686683516        1.4993411959
 H         -4.0252503026       -0.6262884152        3.0367303969
 O         -3.1052947827        5.3067091133       -3.3327671750
 H         -3.8227092891        4.9834895243       -3.9131067426
 H         -3.4217912964        5.2310136804       -2.4204685499
 O          3.9219536232       -3.2459542289       -3.2228365206
 H          4.0933390268       -2.8972325325       -4.1146629043
 H          3.8566890327       -4.2125677858       -3.3352592873
 O         -0.7415324864        4.1312019492       -3.5315130430
 H         -0.8922416032        3.4094282746       -2.8930016618
 H         -1.6044053331        4.5979401752       -3.5588784238
 O         -2.1251073852        1.0565867084        6.0561990920
 H         -3.0938856229        1.0363997283        6.1786684579
 H         -1.8788308077        0.1135267118        6.0468296510
 O         -6.1924587978       -3.0247178274        3.3185317059
 H         -7.0462867646       -2.6607864247        3.6335088600
 H         -6.1903516836       -2.9281152245        2.3387360913
 O         -6.0993497325       -3.0452847253        0.6391664478
 H         -5.5286267988       -2.3055159277        0.3260620604
 H         -6.8706325236       -3.0196917585        0.0380860817
 O         -2.4269360606        1.8355427485        3.4455453995
 H         -2.3510826673        1.5301854743        4.3680647110
 H         -2.9464221713        1.1574689492        2.9779739679
 O         -8.2382947724        2.3860169018        0.1671458510
 H         -8.0889728282        3.3507144094        0.3618130787
 H         -7.7445677629        2.2181688127       -0.6651945172
 O         -8.0249546998       -2.6075348551       -1.1853734791
 H         -8.9402554646       -2.8532996468       -0.9962422315
 H         -8.0189841848       -1.6236048648       -1.2163242314
 O          7.4819275029        4.2714868342        0.1096050751
 H          6.9753039760        5.0013443206        0.5247279613
 H          6.8835974013        3.4893461664        0.1152776181
 O         -5.2807494047        1.3781845886       -4.3192611560
 H         -4.3111304920        1.4982972522       -4.2120057257
 H         -5.3934190912        0.7906012559       -5.0919965983
 O          4.0261874730       -2.1358513679       -5.6577085726
 H          4.7447967701       -1.6288755774       -6.0582264792
 H          3.4320479669       -1.4600790762       -5.2595736905
 O          4.2697634392        4.6122944230        2.8837317502
 H          4.6965757060        4.4542661547        3.7421041096
 H          4.1552108141        3.7099657561        2.5012023056
 O          3.8238246860       -2.6796727898        3.3901382701
 H          4.1354427774       -2.9482850487        4.2761328568
 H          3.6165627813       -1.7428007336        3.4235463567
 O         -3.5289137974        4.1998268272        4.2300125777
 H         -3.4318017375        4.8862663163        3.5455962099
 H         -3.2648988753        3.3581800466        3.8036895758
 O          2.0250908352       -4.4194269285        2.5073482885
 H          2.7655344235       -3.8786482699        2.8579482195
 H          2.3688248461       -5.2778206440        2.2080212764
 O         -1.2486962386       -5.7160670015        2.0752260785
 H         -0.5898004228       -5.7606063818        1.3489252804
 H         -1.0130840080       -4.8871426971        2.5463159248
 O          6.7318113636        1.6826024336        3.1353861705
 H          7.3245911090        1.1045528754        3.6717141460
 H          6.1926224121        1.0994233862        2.5784703129
 O          6.0375769528        2.4056270177       -2.4240665703
 H          6.6955733802        2.2285300746       -3.1177383718
 H          5.8238959568        3.3604742112       -2.4977096692
 O          8.4374816333        1.0029435144        0.5108302833
 H          8.5998555522        0.2926526744        1.1793018741
 H          8.4044049637        0.5889628060       -0.3631893912
 O         -4.0663413900       -1.7575316658        4.2626882509
 H         -4.8877443058       -2.1956715829        3.9464128713
 H         -3.4839421281       -2.4829515060        4.5584950842
 O         -3.7557716643       -4.9533066556        2.8444110495
 H         -2.9585944022       -5.4387592543        2.5774064541
 H         -4.4789730715       -5.2947504806        2.2789750361
 O         -8.0190403412       -1.3211262136        2.0005519510
 H         -8.1743308471       -0.9105026569        2.8831490435
 H         -7.3462425666       -0.7315207632        1.5914185065
 O          8.7444672773        3.2645778081        2.2743637515
 H          8.4736435232        3.6010640387        1.3999773088
 H          8.0253823056        2.6523271320        2.5317102558
 O         -7.6896026767        4.8718658232        0.7409440582
 H         -6.8412846036        4.6176981912        1.1904537070
 H         -8.2553204412        5.0833280947        1.5091613378
 O          1.5245363133       -3.0523223927       -6.2918235401
 H          2.4890450834       -3.0329820037       -6.2016622009
 H          1.2945236249       -2.1565012870       -6.5893767735
 O         -1.0820945623       -3.1031871595       -5.3592539601
 H         -0.2768287960       -3.2031352142       -5.8812797784
 H         -1.4329800187       -4.0041815855       -5.2170552788
 O         -2.6402024165        1.8487916308       -4.2603061334
 H         -2.3926133555        1.2607491691       -4.9849409314
 H         -2.8295524523        2.7161914535       -4.6968758081
 O          3.0502636097        4.2988944253       -3.9218084399
 H          3.9103709391        4.5512712308       -3.5657888159
 H          2.4536108373        5.0696853261       -3.8057166589
 O         -8.3222750943        0.0023652540       -1.4462367948
 H         -8.9954155096        0.0212106399       -0.7365726515
 H         -8.8124811843        0.0132721665       -2.2937916778
 O          0.5870413919       -6.0037416261        0.1763996435
 H          1.2536311009       -6.6047065389        0.5244435428
 H          0.1346665753       -6.3987053293       -0.5948908571
 O         -5.8689005020        1.5756651756        3.6029247180
 H         -5.3292962667        1.2360178728        4.3482839422
 H         -6.0427094666        2.5176069192        3.7850416324
 O         -9.9945704873       -0.4784286927        0.5593983008
 H         -9.2691699863       -0.7646103948        1.1754875342
 H        -10.5508171128       -1.2707848889        0.4588921730
 O         -1.2028015216        3.7521255702        5.5300770165
 H         -1.3798553304        2.8684378280        5.8730265542
 H         -2.0812678343        4.1223947548        5.3273981893
 O         -8.1444792906        0.2509127951        4.1073794259
 H         -7.2869188932        0.7102950654        3.9795405170
 H         -8.8031470544        0.9013759074        3.8148423183
 O          1.2506915653       -1.9838338718        5.3689561124
 H          1.3271237489       -1.7525990837        4.4090194610
 H          2.0882204824       -1.7375083640        5.7982461629
 O          1.1065545466       -0.3219179729       -6.7198443121
 H          1.4954988652       -0.2607834594       -5.8183761990
 H          1.7054528879        0.1535190913       -7.2978881614
 O         -0.6508599818        6.8264960160        2.1471310793
 H          0.3058771312        6.8302169220        2.2745626132
 H         -0.7826948055        6.8301592920        1.1775388755
 O         -8.0178960522        2.1869151808       -4.0853937015
 H         -7.4308980265        2.1348419580       -3.2933460671
 H         -7.4361945666        2.3786346832       -4.8239670317
 O          5.6576460591       -0.0770824676       -6.2749571629
 H          6.5207992995        0.1152194264       -6.6422844264
 H          5.0131918971        0.5852956554       -6.6293681777
 O          1.1721742577        6.0038710007       -3.1943528723
 H          0.5117071000        5.2753708988       -3.1934491896
 H          1.4743956589        6.1435762939       -2.2842098684
 O         -9.4897574650       -0.0595797562       -3.8482836318
 H        -10.3973500889        0.1282573111       -3.5757485792
 H         -9.0711707668        0.7791879386       -4.1225075251
 O         -1.3486080247        0.8662783161       -6.5670234068
 H         -0.5061378936        0.3903047502       -6.6844406458
 H         -1.0925128407        1.8131511134       -6.4775452238
 O          5.5440292778        3.2871276927        4.9024824471
 H          5.9180598881        2.6942597545        4.2104407916
 H          4.7062235141        2.8908824236        5.1823015588
 O         -1.3650100352       -1.5311099565        5.8520204799
 H         -0.4379013039       -1.8221493322        5.7574475592
 H         -1.8816994031       -2.3250380224        6.0177610821
 O         -4.6703755512        0.4290843567        5.6841609206
 H         -5.5014239141        0.1252758984        6.1246920703
 H         -4.3706886919       -0.3846528608        5.2304254402
 O          9.0845376477       -0.8217742029        2.2500316500
 H          8.7934491669       -0.6388335080        3.1575694430
 H         10.0241713334       -0.5565098435        2.1968464639
 O          6.5556985564       -2.2785295810        3.1859670969
 H          7.4361286811       -2.7043962634        3.2421370573
 H          5.9666451439       -2.9345283968        2.7711402484
 O          8.6727730260       -2.5832997379        0.2380716591
 H          8.9953864821       -2.1482268353        1.0413572852
 H          7.8485746876       -2.1078709114        0.0036688490
 O         -8.9294513122       -3.8473719025        1.3597777475
 H         -8.5508518675       -4.4867302257        1.9966769785
 H         -8.5420719295       -2.9839477516        1.5956703432
 O         -7.4052527216       -5.4283333357        2.9192014227
 H         -6.8470074289       -5.8971385960        2.2902525166
 H         -6.8674508610       -4.6719577866        3.2190814996
 O         -8.7158089349       -2.7280267944       -3.8615192290
 H         -8.4706535055       -2.8007911324       -2.9186723101
 H         -9.0120332765       -1.8146342577       -3.9959202871
 O         -9.4853564019        2.1471248741        2.7003440748
 H        -10.4140254908        1.9979141457        2.4470426754
 H         -8.9949049154        2.1458241517        1.8652723375
 O         -3.3710184613        5.9784563391        2.1779177603
 H         -2.5692890646        6.4967943559        2.3126718032
 H         -3.4458390795        5.8522811104        1.2143714985
 O         -2.6192724864       -3.8986089030        5.0398120372
 H         -3.1591148315       -4.4534881830        4.4522311390
 H         -1.7347207028       -3.9221286316        4.6318891166
 O          8.3670536356        4.6314078327       -2.3787707025
 H          8.8428929045        3.8081327056       -2.5798376180
 H          7.9808400074        4.5088837611       -1.4852362127
 O        -10.6960185764        2.3462054437       -0.9261512864
 H        -10.5446237992        3.0133760738       -1.6166244966
 H         -9.8256332574        2.2705812860       -0.4840667109
 O         -0.6561030378       -6.5564008737       -2.1173910302
 H         -0.8728762554       -5.6012164827       -2.2864314612
 H         -1.4773541797       -7.0432798861       -2.1911438295
 O          8.0301734916        0.2921679294       -2.0827389008
 H          8.6069724615       -0.5149611878       -2.1827118137
 H          7.3454809173        0.2054401054       -2.7852621692
 O          5.7273523775        5.0024421616       -3.0465782122
 H          6.6994573102        5.0652365434       -3.0287038580
 H          5.4370929548        5.6343985719       -2.3541915663
 O          9.7213568585        2.2258170355       -2.6244514510
 H          8.9915578883        1.6030007271       -2.3957241359
 H         10.2501406530        2.3013808747       -1.8080981098
 O          9.4211252559       -1.8552620970       -2.3786431263
 H          9.4974862194       -2.3721978790       -1.5580232235
 H          8.7774996969       -2.3460934319       -2.9403865713
 O          1.0534456193       -4.6691664172       -3.9407495452
 H          1.3250719209       -4.1785695310       -4.7266517645
 H          0.2384962615       -4.2507251957       -3.6150590247
 O          1.8609919530        2.4707575542       -5.6640901121
 H          1.3198552377        1.9111053642       -5.0761203634
 H          2.3174312901        3.1165115709       -5.1016103783
 O          7.6988018515        2.0483332871       -4.5757720071
 H          7.9093231714        1.1538572407       -4.9249421651
 H          8.5391136888        2.4933601608       -4.4438567073
 O         -5.3712662646       -0.6320038434       -6.1131848803
 H         -5.8845745961       -1.3501771649       -5.7160123018
 H         -4.4402536889       -0.8805049334       -5.9215484309
 O         -5.5014365880        4.2462461324       -4.1473179615
 H         -5.8563562139        4.5247004924       -3.2960844289
 H         -5.4398185051        3.2803543209       -4.1505590798
 O          6.0124027555        6.0098975129        1.4655107535
 H          5.2601176506        5.5633546498        1.9132916931
 H          6.6586788529        6.0728795359        2.1937395922
 O         -6.8616835853       -0.7986248112        6.3994833078
 H         -6.5901017321       -1.7281384127        6.3704602390
 H         -7.5180031198       -0.6790399433        5.6971455819
 O          7.2982675879       -2.7386955226       -3.6789907685
 H          6.8202255144       -1.8889858506       -3.7992422652
 H          6.8672760767       -3.1258708272       -2.8850253023
 O         10.7748258157        2.1145745534       -0.1146290898
 H         10.7935562175        3.0871695456       -0.0148580645
 H          9.8958470196        1.8341835474        0.2319177679
 O         11.5521884078        0.1186365136        1.6798302736
 H         11.8301113559       -0.6220275878        1.1237269205
 H         11.4649860908        0.8713940995        1.0703739339
 O         -5.7722171562       -4.4905388058       -2.2611936842
 H         -6.5886949053       -4.7467364052       -1.7892064505
 H         -6.0298736169       -3.9021137735       -2.9902744405
 O          7.4448133995        5.2472245136        3.6201615964
 H          8.0586079634        4.5843344731        3.2508648502
 H          6.9134461540        4.7757107854        4.2688041791
 O         -8.5783551438        4.7210166978        3.2455265613
 H         -7.7282206185        4.6003588754        3.6901340086
 H         -8.9848466500        3.8402901147        3.2163630146
 O        -10.7171776540       -2.5256967932       -1.7407387606
 H        -10.6529564035       -2.9290250226       -2.6094540759
 H        -10.9666739003       -1.5869473453       -1.8856311624
 O         -7.7720729273       -5.4344774558       -0.6832585973
 H         -8.2814057922       -4.8658640693       -0.0845275073
 H         -7.1164142968       -5.8783375795       -0.1311030389
 O        -11.5389120781        0.0360651289       -2.0177437310
 H        -12.3069622654       -0.1817742077       -1.4589092590
 H        -11.2018060049        0.8760704080       -1.6340350403
 O          5.0911225343        6.8099496255       -1.1190694096
 H          4.1466017086        6.9331171555       -0.9911462834
 H          5.4693504380        6.6669917967       -0.2402026946
 O          5.4478229513       -0.5471234638        4.9560282099
 H          5.9552104197       -1.2413617887        4.4973135880
 H          4.8534571641       -0.1483928495        4.2834045126
 O          8.5028635259        0.3433872048        4.5853953776
 H          8.1170116944        0.5941587256        5.4462694242
 H          9.3024844733        0.9017514504        4.4584855345
 O          5.4926116908        3.3645724575       -5.4731937737
 H          6.3284926851        2.9095083592       -5.2714687565
 H          5.4869220790        4.1602837625       -4.9308044706
 O          4.0868713946       -5.6284823809       -0.4963666475
 H          4.6854186663       -5.0239804266       -0.0251402337
 H          3.3689019545       -5.0608779938       -0.8675357589
 O         -9.5429303217        4.0127502615       -2.7347501103
 H         -8.9165754424        4.6796760544       -2.4505405266
 H         -9.0624708988        3.4139054007       -3.3342360892
 O         -0.5858980694        3.4239066187       -6.1536213122
 H          0.3610429148        3.2814339477       -6.3053622798
 H         -0.6428691784        3.6821129844       -5.2086389646
 O          8.5438685434       -0.3241016698       -5.4554884089
 H          9.4492189397       -0.2620097594       -5.0858308242
 H          8.2170130951       -1.1963573740       -5.2192767920
 O        -11.7134376312        1.3102296740        1.4261007957
 H        -11.0445712845        0.6549269927        1.1038655168
 H        -11.7449080077        1.9630803450        0.7136180793
 O          2.8886943876       -6.8383553125        1.5189114588
 H          3.5433465423       -6.8854431105        2.2297909492
 H          3.3898497999       -6.4802506885        0.7427109504
 O         10.7427149158        0.0017217850       -3.9092310506
 H         10.4333528680        0.8435739187       -3.5242789634
 H         10.4213397406       -0.7193196859       -3.3389815024
 O         -6.1798974505        4.0156109049        4.6991313133
 H         -6.2936675126        3.9116367854        5.6430140264
 H         -5.2306481354        4.2091425676        4.5406393052
 O          3.4834746321       -1.0552635004        6.6190495630
 H          4.2480881520       -0.8417239820        6.0270747266
 H          3.4508341570       -0.3641269978        7.2786723275
 O          4.2557640407       -5.8908684000       -3.2550024111
 H          4.4978887745       -5.9515909569       -2.3161584563
 H          3.4492611295       -6.4253623669       -3.3375471661
 O          7.8484005197       -4.9643143274        0.9683984495
 H          8.1991245331       -4.0970462179        0.6325211289
 H          7.8572306809       -5.5457287909        0.1987960270
 O        -11.3508111805       -2.8329750071        0.8474122842
 H        -10.5706436892       -3.3572608420        1.1274701187
 H        -11.4048225266       -2.9868169015       -0.1096188724
 O          2.1453800318       -4.8170760677        5.2654124427
 H          1.6120926189       -4.0105682603        5.2623297255
 H          1.5994625534       -5.5056335252        4.8413822942
 O          4.3876367978       -5.7743448596        3.5209683454
 H          3.6931643789       -5.5094949557        4.1393435883
 H          5.2325466072       -5.6490924634        4.0022432779
 O          0.7755997676       -6.6954251161        3.7720578804
 H          1.3952063410       -7.0119114335        3.1092315883
 H         -0.0392884587       -6.4705437583        3.2944309547
 O         10.3148081985        4.7453295381       -0.2319462948
 H          9.8287607688        5.0971043469        0.5163815568
 H          9.7822860452        4.9339038571       -1.0196054977
 O         -3.6640959469       -6.1534952411       -2.8845628516
 H         -3.3415714493       -6.0915843756       -1.9696654958
 H         -4.5782955949       -5.8335645829       -2.8141324872
 O        -10.7972619327       -1.3932927705        3.2989269544
 H        -11.1572155259       -1.9030711604        2.5630621176
 H        -11.1260641265       -0.4966126230        3.2124677464
 O         -8.5736720138       -2.5879396489        4.4545314210
 H         -8.8793556973       -3.4599171168        4.7017130273
 H         -9.3498030623       -2.0914618208        4.1460347546
 O         10.5525752273        1.8154885268        3.7610111505
 H         10.0657232653        2.4484928285        3.2069710657
 H         11.1078970761        1.2975728396        3.1687174152
 O        -13.1635951329       -0.6317448303        0.0660803678
 H        -12.8520453703       -1.4507842247        0.4629079515
 H        -12.9026737030        0.0860562372        0.6671247387
 O         -1.6224622496       -5.7157157253       -4.8833600836
 H         -0.7634371752       -5.9751398612       -4.5338404393
 H         -2.2992122368       -6.0189921398       -4.2638452423
 O         -1.2544146481        7.3419537371       -2.9399526076
 H         -0.4155338119        7.0493879082       -3.3268500575
 H         -1.9524664017        6.7656315192       -3.2897658317
 O          4.4469665437       -3.5232992699        5.8735997746
 H          3.7000006769       -4.1440125624        5.8680388645
 H          4.1969965063       -2.8019154626        6.4636937887
 O          3.9776503796        1.7550371942       -7.1073576129
 H          4.5279632172        2.5060362320       -6.8461475606
 H          3.1361286409        1.9056700785       -6.6297839017
 O         -3.2659529707        3.8627899713       -5.8151597693
 H         -2.4363548866        4.0443807810       -6.2686521217
 H         -3.7686741407        3.2660746051       -6.3916640446
 O          8.6846379320       -3.8424295238        3.3143197000
 H          8.4963313155       -4.4552478401        2.5866616772
 H          9.5779907713       -3.4970119760        3.1366532007
 O         11.6070205143       -2.1204170363       -0.0695173525
 H         11.2053243469       -2.8346999855       -0.5853315092
 H         11.9088945266       -1.4525903104       -0.7111913047
 O         -4.0022022743        1.6167540922       -7.1888527696
 H         -3.1110663194        1.2452900871       -7.2237684895
 H         -4.6099035791        0.8767648255       -7.0906192215
 O         -5.6539043855       -3.3696422961        6.0968443771
 H         -4.7292044128       -3.6096036791        6.1831619646
 H         -5.9085939987       -3.5651265322        5.1886414804
 O          6.8270022437       -5.4741556541       -4.2189175444
 H          5.8892925384       -5.6418068242       -4.0380306478
 H          6.9232368469       -4.5255271043       -4.3697069123
 O          7.7962098409       -5.4040700711       -1.7232973962
 H          7.0937640035       -4.7538728522       -1.5416691085
 H          7.6324856568       -5.6538112400       -2.6549039710
 O          6.8195147833        1.2683462013        6.4683181014
 H          6.5234342067        2.1281162967        6.1372627867
 H          6.2496277914        0.6062284098        6.0419353921
 O         11.0962745390       -2.9023909079        2.5065097314
 H         11.2581518280       -2.7263450455        1.5639803848
 H         11.5674204504       -2.2253552543        2.9930164568
 O         12.2592337183        0.0898700580       -1.5027971237
 H         11.8819885767        0.8910319774       -1.1171950336
 H         12.0776774899        0.1098176445       -2.4513127946
 O          6.5717624574       -4.9591770164        4.7663801180
 H          7.3804031950       -4.5642419014        4.4131461067
 H          6.1141695166       -4.2827814893        5.2816669710
 O          2.0236465504       -7.2528636867       -2.5372487784
 H          2.2947462738       -7.2142481443       -1.6178254632
 H          1.0960028479       -6.9818046162       -2.5813771157
 O         10.2287838970       -4.3244996155       -1.1905586164
 H         10.4637856119       -4.8510542375       -0.4268327630
 H          9.3735224421       -4.6909270291       -1.5026483198
