  281

 H          0.4630927076        1.1941025328        0.8323452959
 C          0.5529035761        0.5095402430       -0.0251092076
 H          0.4633421182        1.0989800596       -0.9466436096
 C         -0.5779259333       -0.5149488604        0.0205351876
 H         -0.4518492549       -1.1270258237        0.9278134322
 H         -0.4840892691       -1.1748678656       -0.8448928487
 N         -1.8603253886        0.1647702475       -0.0623309410
 H         -2.6131021662       -0.5138473280       -0.0751527666
 H         -1.9956541840        0.7570092262        0.7508171933
 O          1.7808081027       -0.1833448059        0.0209869106
 H          2.5006908393        0.4507195084       -0.0567171281
 O          0.0221153765       -0.0838579558       -5.3899772881
 H          0.3030434164        0.5081709681       -4.6567638858
 H         -0.5383019039       -0.7403517964       -4.9350990619
 O          5.4969864215       -3.0082900899        2.4817634759
 H          4.8216839989       -3.7131863970        2.5656930155
 H          6.0497141869       -3.2833399025        1.7149386090
 O          3.9904566846       -1.0860761783        1.5107497727
 H          4.2333403226       -0.8505627364        0.5971711856
 H          4.6085375120       -1.7924470150        1.8215770778
 O         -3.7828486535        0.9102303536       -3.7097322239
 H         -3.0659075744        1.0681185175       -3.0483733233
 H         -3.3529406921        1.1976253632       -4.5403223303
 O         -2.6670025080       -2.1904470336       -1.5316938964
 H         -2.0804754928       -1.9231214651       -2.2625328403
 H         -3.5630166278       -2.0599269867       -1.8804145431
 O          1.8662973251       -2.6078316216        1.9733726767
 H          2.5633644692       -2.0238830641        1.6244186215
 H          1.8721109805       -2.4525181861        2.9335058445
 O         -3.9589606108       -1.7892443555        0.9798184457
 H         -3.5163089946       -2.6166221372        1.2487672783
 H         -4.4808690926       -2.0474375937        0.1969771886
 O          1.9438062950       -2.6283732891       -1.0224128537
 H          1.8163711437       -1.7347071630       -0.6547124633
 H          1.4349280183       -3.2270907115       -0.4298924990
 O          0.9330281395       -3.4058016332       -3.3574191638
 H          1.3268574244       -3.1504366926       -2.4940614192
 H          1.5016506114       -3.0047375347       -4.0371127362
 O          4.0207005483        0.5992137476        3.5546218024
 H          4.0566984065        0.0242920132        2.7582772146
 H          3.9059063900        1.5016320520        3.2145061588
 O         -0.5854328850        1.8977781354        2.8650604809
 H         -1.1965180388        1.7619890024        3.6251898763
 H          0.1010559096        1.2095708912        2.9478118505
 O          3.3550874205        2.9125959002        2.2022962106
 H          3.1070320972        2.5928080454        1.3064098464
 H          2.5356105079        3.2795142372        2.6155578136
 O          1.4405757642        0.1486676314        2.9179634112
 H          2.2446992095        0.2873337933        3.4522952229
 H          1.7211286266       -0.1960758341        2.0585782820
 O          0.4770253442       -4.4098812746        0.2972447749
 H          0.2859082931       -4.2182112113        1.2429442501
 H         -0.3976218263       -4.5467825852       -0.1167499196
 O          2.8265456343        2.2923814802       -0.3750122942
 H          3.4272061650        2.7250664396       -1.0152520798
 H          1.9573976335        2.6267230826       -0.6530106935
 O         -2.7113523606       -0.3241227119        2.8606149998
 H         -3.0883440024       -0.7861743345        2.0956554470
 H         -3.1917458404       -0.6729461781        3.6417705102
 O         -3.2461913580        2.2341976713        2.1411077196
 H         -3.9197751209        2.6785074285        2.6862606072
 H         -3.0957789870        1.3556671286        2.5363243313
 O         -1.2140982686        3.2897291165        0.6017807928
 H         -1.1255762966        2.7143212088        1.3829065423
 H         -2.1616718265        3.4777144650        0.5183786041
 O         -1.8344627602        1.7509684763       -2.1506972728
 H         -1.8368346981        1.1564637242       -1.3412228679
 H         -0.9889894622        1.6136657112       -2.6041786655
 O          0.5937111965        3.4749681998       -1.3643708053
 H         -0.1445419330        3.3794542307       -0.7357050557
 H          0.1892505405        3.5996026808       -2.2412626385
 O          0.7167534595        1.3510743243       -3.2654174798
 H          1.4375078459        0.7736524878       -2.9497643090
 H          1.1538374347        2.1470837451       -3.6166912790
 O         -4.8251990356        1.1746278039        4.5817122554
 H         -5.0971422713        2.0963115790        4.4976317740
 H         -5.1638177618        0.7321711913        3.7804638511
 O          2.8039108684       -0.2206334212       -2.8383865500
 H          3.1730118749       -0.6694089847       -2.0725999780
 H          2.5925543101       -0.8893936887       -3.5337984608
 O          4.0596142467        3.5723707123       -2.4014374813
 H          4.8211041677        4.1622941034       -2.2227234418
 H          4.3803987594        2.8971937789       -3.0234431501
 O          5.5864554762        2.2519123685       -0.2405393197
 H          6.0889499776        1.9508119434        0.5439243122
 H          5.2907087243        3.1572540284       -0.0546885432
 O         -4.5859582289       -1.6409831906       -3.3882406089
 H         -5.5451226564       -1.7394871804       -3.3006857671
 H         -4.3780946732       -0.6960086460       -3.5451268009
 O         -4.7545279497        1.7205138438        0.0236410217
 H         -4.0685831836        1.9807647860        0.6767504864
 H         -4.6721234163        2.2789475233       -0.7687474946
 O         -1.1900316125       -1.8862132032       -3.7750575229
 H         -1.8297759076       -2.4751919585       -4.1988694771
 H         -0.3900159614       -2.4335543480       -3.5918006967
 O          4.4422618857        1.4703415983       -4.1535063777
 H          5.3332996196        1.4365566471       -3.7551041575
 H          3.8702754487        0.8800003429       -3.6174399654
 O          1.1263736817        3.8849452729        3.2257595245
 H          0.4651167914        3.1719580561        3.0666607080
 H          0.8059188964        4.6482275622        2.7069792582
 O          4.7452135197       -0.2019789276       -0.8839842109
 H          4.6856636977        0.7618441035       -0.7632719109
 H          5.6360321410       -0.4219917487       -0.5384785940
 O          2.1725481011        3.4291936293       -4.3247893901
 H          2.7750546411        2.9123903012       -4.8682125628
 H          2.7050408347        3.7113139325       -3.5559350006
 O          6.4657028298       -0.6349044597        3.6180473207
 H          5.6595811509       -0.1964658599        3.9404678444
 H          6.1910705676       -1.5204166058        3.3271701318
 O         -0.4573466718       -4.0813212613        2.7806385471
 H          0.1824384943       -4.5130383790        3.3879001453
 H         -0.4343635385       -3.1386569650        3.0488809239
 O          4.4962541577        4.7672450201        0.5314248881
 H          3.7323160934        5.1341663035        0.0549946820
 H          4.0937540979        4.2448120483        1.2472277802
 O         -5.8865888946       -0.3924351606       -1.0567619815
 H         -6.3952664802        0.1720517895       -1.6681794939
 H         -5.2895346760        0.2279594721       -0.5990172077
 O          5.5228780986       -1.9245793171       -3.0109276107
 H          5.2548447967       -1.2285756998       -2.3926105104
 H          5.1936664952       -2.7459195667       -2.6197808030
 O         -1.9945727543        1.8841539028       -5.4607593820
 H         -1.5516056955        2.5527378969       -4.9178184099
 H         -1.3232036035        1.2080525719       -5.6492300082
 O         -3.2591866818       -3.6469226792       -4.3600540380
 H         -3.6317077594       -3.8003365933       -5.2260607328
 H         -3.7870553739       -2.8927216257       -3.9774614562
 O         -5.7175327363       -0.2882135324        2.4671599065
 H         -5.0886493375       -0.8328239959        1.9614562441
 H         -6.5579816427       -0.3893393542        2.0052341775
 O         -2.6566378316        4.3341609823       -2.1213162168
 H         -2.2784886858        3.4294764229       -2.1601318231
 H         -2.9983967369        4.4456158523       -1.2137398574
 O         -3.6823661995        4.4597553555        0.3432028485
 H         -4.6232385472        4.6475212099        0.1244210334
 H         -3.4716502622        4.9115739485        1.1772656773
 O         -0.5008178834       -1.5493970712        3.6064917495
 H         -1.2552249810       -1.0574239066        3.2151245621
 H          0.2923338016       -0.9980151467        3.4647308412
 O         -5.0001213874        2.9442419052       -2.4624971236
 H         -4.3066091276        3.6237424932       -2.5387889989
 H         -4.6551979797        2.1911214047       -2.9939502773
 O         -2.0769274906        1.5554634815        5.0394057223
 H         -1.8301373743        0.7000385092        5.4562983492
 H         -3.0413178665        1.5030266369        4.9279203756
 O          2.0078261670        5.5532885005       -0.4770382731
 H          1.8003674012        6.2789598838       -1.0675958618
 H          1.5360813554        4.7793409474       -0.8690465125
 O          4.3416466753       -3.7716588679       -1.2652319135
 H          4.0311183493       -4.6589218325       -1.0330568702
 H          3.5329538610       -3.2286698530       -1.1479065649
 O          3.4270929648       -4.7268833874        2.2418549316
 H          2.7852281974       -3.9980186001        2.0457379480
 H          3.4032001135       -5.2977383006        1.4651291381
 O         -7.3898246040        1.4772966852       -2.3217017858
 H         -6.6770572347        2.0787696009       -2.5713665417
 H         -7.9505210871        1.9741502333       -1.6939042581
 O         -1.9683194933       -4.6340708013       -0.8376751264
 H         -2.2198073139       -3.6945610502       -1.0349822447
 H         -1.5921114198       -4.9756536915       -1.6817994609
 O          2.2010679240       -1.6805121172       -4.9484490223
 H          1.5186316506       -1.1102000738       -5.3557376957
 H          3.0665598809       -1.4938393839       -5.3779052249
 O         -4.0620255451       -1.5330604543        4.8517408590
 H         -4.5459841005       -2.1880868600        4.3181206654
 H         -4.6645605700       -0.8072065131        5.0468262436
 O         -0.5046402123        3.8590233790       -3.9232255411
 H         -0.9314145695        4.7147137127       -3.8461223436
 H          0.3586468499        3.9849685388       -4.3390631372
 O         -7.7362509883       -0.9904249170        0.6461325175
 H         -6.9830014270       -0.7929454693        0.0108171099
 H         -7.5836843060       -1.9222260559        0.9347136293
 O         -6.9930457924       -3.4397770744        1.2574300607
 H         -6.4351242702       -3.4664800924        2.0502009394
 H         -6.3578667035       -3.4438653824        0.4982934610
 O         -0.6172905998        6.0895063358       -1.6316091774
 H         -1.3689963966        5.5163989913       -1.8765497588
 H         -0.8099342192        6.4000579447       -0.7446519362
 O          6.6446213785        1.6862639923       -2.6363533128
 H          7.1211150109        0.8336086754       -2.6015130011
 H          6.2238782871        1.8285816945       -1.7601695586
 O         -2.9069918752       -4.1704071534        1.7546502722
 H         -2.0460299187       -4.1921982793        2.2261108831
 H         -2.7251059125       -4.5518376290        0.8844024401
 O          1.5880936514       -4.7855375870        4.3405708389
 H          2.2959297464       -5.0107230553        3.7163792612
 H          1.8130668716       -3.8999519593        4.6647158105
 O          2.4265780958       -2.1165287214        4.6107730260
 H          3.3617295358       -1.9644320528        4.7501431669
 H          1.9609396037       -1.4171496828        5.1211622256
 O         -6.7084524714        2.8317858977        1.4516275293
 H         -7.4489936706        2.2493599730        1.6655647019
 H         -6.0501530434        2.2923000168        0.9516984195
 O         -1.0902026019       -5.2324947155       -3.2596985082
 H         -0.2731763621       -4.7152738448       -3.3614502844
 H         -1.7673888270       -4.7909315770       -3.7867113704
 O          6.6665458248       -3.4497394850        0.1393460364
 H          6.7981116101       -2.4828337948        0.0350159213
 H          5.8857533071       -3.6635980449       -0.4025183429
 O          7.1049383413       -0.8248183508        0.0603916687
 H          7.7503038724       -0.7425184949        0.7896558438
 H          7.5832756006       -0.6783194698       -0.7812084429
 O          7.9789209410       -0.5956542833       -2.4437946219
 H          8.9342715444       -0.6786405200       -2.1768560507
 H          7.6897555983       -1.3841196087       -2.9110490540
 O         -5.0673084754       -3.6057523257        3.2932148255
 H         -5.2008854666       -4.3561704541        3.8717414071
 H         -4.2957914847       -3.8321105195        2.7336620723
 O         -5.4202872842       -3.1435751277       -0.8312967421
 H         -5.0875538225       -3.9496489281       -1.2839219427
 H         -5.9782455738       -2.6857024084       -1.4851859399
 O         -1.5379995714       -0.9174555810        5.9711199777
 H         -2.4274682718       -1.2869315304        5.9393563024
 H         -1.0861774965       -1.2851304580        5.1784393785
 O          6.8970719676        1.5243961624        1.9631026330
 H          6.6628435962        2.3049942322        2.5041216163
 H          6.7087291589        0.7396016889        2.5096134897
 O          0.6050726950        2.4572435061        5.6759907665
 H         -0.3541175613        2.3952984607        5.5861418736
 H          0.9160602323        3.0864115350        5.0139972291
 O          1.2359173211       -0.1776659740        5.9828182159
 H          0.3793402622       -0.4513947227        6.3251331856
 H          1.1720708059        0.7882118979        5.8666716673
 O         -5.1640255684        3.6613568458        3.4450997539
 H         -5.8245394523        3.4820687284        2.7369510373
 H         -4.8450559776        4.5584926968        3.3310867701
 O         -0.0039198804        5.5438656614        1.4189457245
 H          0.7603918267        5.7102069170        0.8382906913
 H         -0.4463497654        4.7557245054        1.0327786933
 O          2.7124488778       -5.7835867096       -0.2664095448
 H          2.4587213929       -6.5296900679       -0.8070477652
 H          1.8765383139       -5.3094002085       -0.0562662895
 O          4.6904351918       -0.9839109622       -5.4932767713
 H          4.6842241335       -0.0349075040       -5.2911155111
 H          5.0940071510       -1.4136887226       -4.7184590126
 O          5.8692309412        3.7154905330        3.1083827735
 H          5.9850320179        4.5232309140        2.6040070565
 H          4.9382972182        3.4633823545        3.0057049025
 O          9.1636406469        1.4237184623        0.4109554701
 H          8.3673133548        1.4791282187        0.9675875628
 H          9.0471523866        2.1325042340       -0.2407587371
 O         -6.2031770486        4.7099283328       -0.4547456082
 H         -6.6617402786        4.1369268047        0.1836065225
 H         -6.1403586293        4.2101668918       -1.2759314601
 O         -2.5887274987        5.1554526632        2.7368337695
 H         -2.4031938127        4.2360190201        2.9617003408
 H         -1.7415056103        5.5581430237        2.5137409954
 O          8.4570779738        3.2880402941       -1.5495893945
 H          9.2107136171        3.4635627805       -2.1100318883
 H          7.8517172772        2.7109349611       -2.0740159773
 O          6.2104121296        5.0101153723       -1.6561782173
 H          7.0275114163        4.5031978828       -1.5289714493
 H          5.8503876599        5.1862414516       -0.7784579020
 O         10.2052157391       -0.6756008881       -1.1572101692
 H         10.0022985738        0.0452512016       -0.5368569441
 H         10.0997874640       -1.5085986903       -0.6570588089
 O          9.4731326428       -2.8633142703        0.3114355280
 H          8.6482873492       -3.3458570571        0.1709054553
 H          9.3637520583       -2.3922558137        1.1479475273
 O          8.8314613410       -0.8649089363        2.1710004755
 H          9.3344789588       -0.0497483871        2.0879591551
 H          8.2128033130       -0.7647291246        2.9082429645
 O         -4.3389682459       -5.1715649116       -2.1566723738
 H         -3.5502732815       -5.2777317594       -1.6007922057
 H         -4.0233907263       -4.7928725785       -2.9887997092
 O         -7.1663298051       -2.4399366615       -2.8516343925
 H         -7.5643388670       -3.2802565085       -2.5809935537
 H         -7.8405394005       -1.7762559788       -2.6060222984
 O         -9.0378665777       -0.7659837425       -1.7836995108
 H         -8.7171311681       -0.8082075112       -0.8650062184
 H         -8.6764420430        0.0498111776       -2.1512778662
 O         -8.6679577893       -3.8784533207       -1.0549274791
 H         -8.2495079228       -3.9328743072       -0.1874391226
 H         -9.2404407670       -3.1070857810       -1.0422512260
 O         -9.1332829465        2.5755021247       -0.5815191671
 H         -9.0935391278        2.1503537682        0.2899277040
 H        -10.0241425336        2.4521858601       -0.9097668427
 O         -8.8679540525        1.1144126031        1.7566967608
 H         -8.5090916834        0.2858140568        1.3647245351
 H         -9.3450450004        0.8689793388        2.5491121526
