  311

 H          0.4630927076        1.1941025336        0.8323452958
 C          0.5529035759        0.5095402429       -0.0251092080
 H          0.4633421182        1.0989800598       -0.9466436102
 C         -0.5779259334       -0.5149488605        0.0205351888
 H         -0.4518492549       -1.1270258235        0.9278134326
 H         -0.4840892691       -1.1748678655       -0.8448928480
 N         -1.8603253884        0.1647702478       -0.0623309415
 H         -2.6131021661       -0.5138473273       -0.0751527669
 H         -1.9956541840        0.7570092265        0.7508171927
 O          1.7808081027       -0.1833448062        0.0209869105
 H          2.5006908397        0.4507195092       -0.0567171283
 O         -2.5035894533        1.9590347630       -1.8369660458
 H         -1.7043608672        2.3987370719       -2.1453794745
 H         -2.1742099563        1.2209531405       -1.2271114613
 O          5.1435301801       -1.4438210992        0.0592671662
 H          4.5580818065       -1.8564132734        0.7147247737
 H          5.4029682268       -2.1293474635       -0.5923407842
 O          4.0905861723        0.9681535637       -0.4257100040
 H          4.4831361852        0.1036373568       -0.1946797814
 H          4.7308476132        1.6617484123       -0.1816130954
 O         -4.1692691572        4.1587316284       -2.1227132627
 H         -3.6602741262        3.3313733683       -2.1224197018
 H         -3.8937085757        4.6390689286       -1.3168952564
 O         -4.3772820994        2.0937395144        0.1998999783
 H         -5.0023343593        2.8360519071        0.1423670797
 H         -3.6985206135        2.2055817845       -0.4753250373
 O          4.1749310923        0.7042914742        2.6987361154
 H          3.8889434174       -0.2038823719        2.4176157231
 H          3.5884891979        1.3233221610        2.2064234494
 O         -3.8473453055        1.3253732234        2.6213598866
 H         -4.7037002511        1.0991210824        3.0183021832
 H         -4.0575573256        1.6712876263        1.7235771722
 O          1.8890164377       -2.5996695640       -1.0573080954
 H          1.1331498567       -3.0542214416       -0.6395523397
 H          1.9249381975       -1.7154460240       -0.6421162624
 O          5.2778063692        2.7191560011       -4.0601680206
 H          4.6489392286        2.4893438328       -4.7625021719
 H          4.8698495642        3.4814125620       -3.6115810414
 O          2.6551119209        2.5656408515        1.5593812654
 H          3.3618031854        3.2423049674        1.6811496594
 H          1.9088247011        2.8799989952        2.1206338652
 O         -1.1075095516        1.7112001390        2.4787892568
 H         -2.0122018264        1.6802792515        2.8237433347
 H         -1.1279528369        2.4123850677        1.7956125454
 O          0.8742636612        3.5385447720        3.2370640374
 H          1.4410876438        3.4649313055        4.0282244531
 H          0.1017900809        2.9601135143        3.3451557066
 O         -1.0776990355        3.5339782111        0.5081678757
 H         -0.5393490019        4.2814031706        0.8445961304
 H         -0.7458870497        3.3529654183       -0.3957684881
 O         -4.2231152752       -1.2684231497       -0.4282423976
 H         -4.7834325094       -0.7292974915        0.1638499771
 H         -4.3649369198       -0.8990088498       -1.3229612930
 O         -2.4458535083       -3.1080671037        0.7441144713
 H         -2.6873109472       -2.9318393026       -0.1815522947
 H         -2.5732169056       -2.2835853804        1.2437921253
 O          3.1516882946       -1.5699526315        1.9411213415
 H          2.3263489741       -1.2910861064        1.5249677230
 H          2.9597969229       -1.9477964613        2.8264490661
 O          0.0603409936       -3.9145324741        0.3962613967
 H          0.3266723220       -3.4559411471        1.2283283212
 H         -0.9172235421       -3.8663958100        0.4463018827
 O         -2.5010301673       -3.1823544507       -1.9978558061
 H         -3.2858859985       -3.1612560543       -2.6056891547
 H         -1.9842971700       -2.4003525688       -2.2565541755
 O         -1.0261918395       -1.2418171781       -3.1700723854
 H         -0.3985779548       -1.7674352989       -3.6983622413
 H         -0.7772362327       -0.3007079799       -3.2653021682
 O         -4.3580638903        0.1823371577       -2.7043504143
 H         -3.6969511320        0.8735869849       -2.5264087066
 H         -4.0721841925       -0.2504073933       -3.5314124952
 O          2.5090006569        3.1972977590       -1.0178466633
 H          2.6014591126        2.4161231118       -1.6145705993
 H          2.5464201814        2.8385264698       -0.1043873240
 O          6.1237062759        2.6590555935        0.1543485627
 H          6.5773618923        2.7411258699       -0.7180509224
 H          6.4938803237        1.8729765141        0.6105189798
 O         -6.1778734069       -0.0435146615        0.9596680911
 H         -6.2269030248        0.5024050163        0.1461464258
 H         -6.8318568123       -0.7550833819        0.8577962008
 O          4.6959756017        4.2352244651        1.8085284697
 H          5.0388650161        3.9017256864        2.6659467235
 H          5.2474746152        3.8010128476        1.1335861432
 O          6.5249267438        0.3134409977        1.4472661298
 H          5.7726504670        0.4576560474        2.0561478221
 H          6.2189899102       -0.4042522361        0.8556367270
 O         -5.4228444096       -3.4222776056        0.4379164238
 H         -4.9522736450       -2.6781827172       -0.0159575842
 H         -5.2967133606       -3.2595705964        1.3913008882
 O         -5.0783098690       -2.6133230588        3.0486357613
 H         -4.6768227012       -3.4409758404        3.3437226401
 H         -4.3014031572       -2.0404637506        2.8128611526
 O         -4.5797362857       -3.0830932044       -3.5724809682
 H         -5.1765827089       -2.4730385956       -3.0726726695
 H         -5.0194465875       -3.9530095348       -3.4747959940
 O          2.4160526990        1.3253413786       -2.8121395581
 H          2.6854807526        1.6423065230       -3.6942650362
 H          2.4776954549        0.3590899496       -2.8539802247
 O          2.4868409739       -1.3193872804       -3.3540362954
 H          2.9052413853       -2.0105322318       -3.9094634005
 H          2.1125043253       -1.8079743495       -2.6013825981
 O          0.5355279967       -0.1201137091        3.5618953347
 H          0.0028256781        0.4889066031        3.0166677032
 H          0.5801237636       -0.9964999483        3.1262108907
 O          4.7906864399       -3.8145402944        1.8115865442
 H          4.0657342785       -4.0577419037        2.4140723616
 H          4.4879564256       -4.1205919406        0.9373088950
 O         -6.5249574477        1.1109621371       -1.4091878946
 H         -5.8298596816        0.6738813265       -1.9369762627
 H         -6.5937467376        2.0216398192       -1.7784063089
 O          0.5858686608       -2.6571165345        2.6700244411
 H         -0.1423403372       -2.9431745409        3.2795959259
 H          1.3523241958       -3.1931981679        2.9549115883
 O         -2.9738369415       -1.1235419911        2.5205742696
 H         -2.4894136264       -1.0695250927        3.3700308312
 H         -3.3296978404       -0.2048809237        2.4078929033
 O         -5.9972062859        0.0442596120        3.7933524530
 H         -5.5772960914        0.1957818921        4.6620423412
 H         -5.7851229498       -0.8604665853        3.5306349746
 O          7.5223994516        0.0177434939       -1.5883109847
 H          7.7065310668       -0.8602400729       -1.1844205031
 H          6.5840772065        0.0101095822       -1.8852656734
 O         -3.1847601874        5.1128009016        0.1703781835
 H         -2.5056424969        4.4293249599        0.3753942742
 H         -3.7172931446        5.2137530092        0.9658127309
 O          5.5561415208        2.7952310747        3.8845799871
 H          6.4971457646        2.6011674711        3.7330850967
 H          5.0954447078        1.9802136313        3.6323476312
 O          5.9195566407       -3.2542371474       -1.7394404455
 H          6.8665493639       -3.2476916270       -1.5577063249
 H          5.7981992861       -2.8667284819       -2.6417537863
 O          7.5126524894       -3.5928504752        1.6318397507
 H          7.7391275300       -2.8886685566        2.2632663164
 H          6.5679924955       -3.7893353304        1.7355863439
 O          8.2693376241       -2.3113142563       -0.5419347811
 H          9.1344421037       -2.0086418696       -0.2359183365
 H          7.9276549571       -2.8345939363        0.2249559479
 O          3.9670308528        4.7141035798       -2.6952263563
 H          4.1680929742        5.5455628506       -2.2642837256
 H          3.4897703410        4.1672553987       -2.0400248430
 O          5.1596012656        0.3365341743       -2.7877498361
 H          4.5069296821        0.5399096639       -2.0901882045
 H          5.2206706910        1.1514202846       -3.3222224470
 O         -6.3980939462       -1.7049856987       -2.2482650505
 H         -7.0687406716       -2.4008625748       -2.1819837267
 H         -6.6856555414       -1.0907873297       -2.9447879150
 O         -1.7854066665       -0.5888554886        4.8577035432
 H         -0.8548153981       -0.4922927691        4.5769506068
 H         -2.0887908031        0.3327394935        4.9641071842
 O          2.7006406525        0.5118304345        4.9407738562
 H          3.3933417234        0.5056019876        4.2497074348
 H          1.8674654541        0.3460448694        4.4484032876
 O         -0.3913865554        1.2762370008       -3.8130314100
 H          0.0575994516        1.9242101957       -3.2438201574
 H          0.2452666085        0.9727121271       -4.4843943502
 O          3.7444401321       -4.4407990489       -0.6628913454
 H          4.5643455122       -4.1910178530       -1.1228863995
 H          3.1238627403       -3.6826980779       -0.7888666038
 O         -3.1832023381       -4.5879423749        2.8743198163
 H         -2.9597377566       -4.1181468846        2.0432396294
 H         -2.8762301777       -5.4827915555        2.6979294741
 O          1.8351739065       -5.9131908059        0.8659904582
 H          2.5570669760       -5.6383814696        0.2858058139
 H          1.0765794636       -5.3394173638        0.6481139335
 O          2.4802105663       -4.5671778285        3.0337122372
 H          2.2205653598       -5.1934688805        2.3098398440
 H          2.3606180731       -5.0107117536        3.8717578033
 O         -0.0145862324        3.2153000879       -1.9316732475
 H          0.9120907395        3.2868574682       -1.6366329369
 H         -0.1846464707        4.0375159795       -2.4694288709
 O         -4.7783989965        4.6931197339        2.4908187538
 H         -5.1983796793        4.2444155943        3.2510795992
 H         -5.3860438311        4.5298260949        1.7551181449
 O          8.2286500755       -1.2151999879        2.8771858412
 H          7.6647004411       -0.6180329901        2.3386641211
 H          9.0661454436       -1.2635863766        2.3950247115
 O          8.9276422129        1.3052642616        0.4874545157
 H          8.4030241774        0.9846873781       -0.2642352949
 H          9.0036964766        2.2751089583        0.4149476741
 O         -1.2891467666       -3.3748468782        4.3531386265
 H         -1.6546369967       -2.5870944853        4.7682126297
 H         -2.0198265313       -3.8376786575        3.8895937052
 O          5.5392739368       -1.7948295073        3.6595981076
 H          6.4930639007       -1.6948203818        3.7240459334
 H          5.3643629545       -2.4127244593        2.9349777720
 O         -6.3945639429        3.8937658376        0.3739611875
 H         -6.8542242956        3.2675683884        0.9799533590
 H         -6.9209330317        3.9830797261       -0.4229368267
 O          2.9990606607       -2.2419381097        4.5441237342
 H          3.9672913925       -2.2523680552        4.5132129068
 H          2.7746829484       -1.4145362314        4.9919201218
 O         -2.3471090522        2.0869275173        5.1774726846
 H         -2.4165869867        2.7936362874        4.5043623391
 H         -1.4924840282        2.2209380983        5.6147318501
 O          0.4250283408        5.5599964391        1.4292569529
 H          0.6065654736        5.0577241413        2.2387369470
 H          1.2981916260        5.7344505718        1.0225448674
 O         -3.9207844736       -5.3246720067       -0.7236010531
 H         -4.4880691044       -4.7328263870       -0.1850147901
 H         -3.3494415092       -4.7320216419       -1.2286480699
 O         -3.2046352756       -1.0679540534       -4.7978588943
 H         -3.6995715400       -1.8937803272       -4.6973856346
 H         -2.3851065291       -1.1897899746       -4.2744872323
 O          0.4630556887       -3.0140985813       -4.5824552847
 H          1.3681923824       -3.1764632155       -4.8742713643
 H          0.2586746472       -3.7212995330       -3.9535256295
 O         -0.2284974484       -4.6698935263       -2.3535932055
 H         -0.0028680959       -4.6077359650       -1.4182736283
 H         -1.1218373339       -4.2817687538       -2.3986855366
 O         -6.7102925616        3.4469790072       -2.6020694491
 H         -5.8853146086        3.9021060829       -2.3382892841
 H         -6.4527514913        3.0907099164       -3.4848919953
 O          2.9871562879        2.0227516375       -5.3771189977
 H          2.4068641370        1.3341824094       -5.7285188809
 H          2.4587116673        2.8385505475       -5.2916452702
 O         -2.2901556232        4.0601560360        3.3096296513
 H         -3.1913227270        4.2155841195        2.9649066870
 H         -1.9164728910        4.9219004296        3.4907357199
 O          2.8604869572        5.6684728056        0.2594246567
 H          3.5506745080        5.4188289296        0.8888939766
 H          2.6858564827        4.8810946860       -0.2738045094
 O         -0.4549630565        5.3597290728       -3.2964232994
 H         -0.6823983098        5.9466446056       -2.5481919316
 H         -1.2911586265        5.1768540065       -3.7838523459
 O         -2.7361796503        4.5834524516       -4.4186620552
 H         -2.7755626752        3.6941669791       -4.7908653402
 H         -3.3837587817        4.5952258067       -3.6926548560
 O         -2.8664620158        1.7418602017       -4.8765000285
 H         -1.9954113752        1.6632775677       -4.4461106921
 H         -3.0458186318        0.8582012031       -5.2194740273
 O          1.2357485314       -0.1454626817       -5.4312144613
 H          1.6813397697       -0.5941838091       -4.6778387456
 H          0.7758485557       -0.8383888942       -5.9075890313
 O          1.7989213278        4.2477042460       -4.4911891778
 H          2.5221075094        4.5966678050       -3.9538033218
 H          0.9988973512        4.7203180388       -4.2188326726
 O          2.5119387812       -5.2950612514       -3.0310990950
 H          2.9482620386       -5.1817178054       -2.1721613337
 H          1.5620416035       -5.2335408300       -2.8700405340
 O         -1.0738702714        6.5063886804       -0.9244742013
 H         -0.4849824699        6.4213874510       -0.1674096037
 H         -1.9373641866        6.1860316636       -0.6176418146
 O          8.0838233672        1.9077743983        3.1587653480
 H          8.2441250673        1.5868724094        2.2533942328
 H          8.2874781083        1.1630759619        3.7290368408
 O          7.3605511943        2.7094073845       -2.1806318896
 H          7.6485296045        1.7873245133       -2.1913142943
 H          6.7680921904        2.8239535765       -2.9358161966
 O         -7.3183072561        2.1002803440        2.1040181914
 H         -6.7997064655        1.2974306565        1.8755686568
 H         -8.2437982802        1.8583683030        1.9562328192
 O         -8.7956572921       -0.1266585445       -0.9143213372
 H         -7.9278139539        0.2917120688       -1.1377829322
 H         -8.5522729977       -0.9956412503       -0.5564166803
 O         -7.8053259659       -2.2928453659        0.4754276545
 H         -8.0612016356       -2.5400942929        1.4005400268
 H         -6.9303887300       -2.7367881523        0.3530861247
 O         -6.0210893240        3.1316296968        4.3083433157
 H         -5.7014554118        2.4434392795        4.8949988262
 H         -6.5789087699        2.6991219657        3.6388624522
 O         -8.0143691364       -2.8420882637        3.0114665935
 H         -8.3690254162       -1.9988304728        3.3760997037
 H         -7.0732492082       -2.8530562880        3.2215086355
 O         -8.7076519666       -0.3625174009        3.6831862324
 H         -9.0942831078        0.0668312317        2.9070597406
 H         -7.7970876877       -0.0252603003        3.7624312753
 O         -4.5170689981        0.6834354561        5.9220673811
 H         -3.8272081944        1.3320481929        5.6800379794
 H         -4.0411311075       -0.0857651238        6.2401870031
 O          0.2549722553        2.1273532682        6.0367365775
 H          0.9752449182        2.7659610343        6.0211285546
 H          0.6663577912        1.2620586463        6.0960856849
 O          8.5354029736        3.9155999121        1.0494469682
 H          8.5201705243        3.7426571253        1.9958241287
 H          7.6158800295        3.9080379225        0.7543519404
 O         10.2479544647       -0.9687776151        0.9513067936
 H          9.8553458817       -0.0870416005        0.7811360511
 H         11.1967893432       -0.8619301922        0.9092162135
 O          5.5949891821       -2.0209916803       -4.0411184886
 H          6.4902256445       -1.7308186032       -4.2960065146
 H          5.1800508412       -1.2126371855       -3.6816962011
 O         -5.6410101623        2.2098915662       -4.6885885500
 H         -4.6749827919        2.1540262648       -4.7066881691
 H         -5.9689896469        1.3053359219       -4.5686670616
 O         -7.1924326093       -0.0608380631       -4.2611049898
 H         -7.8953967074        0.5506395871       -3.9298086066
 H         -7.4979967049       -0.4169907961       -5.0933491296
 O         -8.9932893068        1.5850312746       -3.2093629048
 H         -9.1970884062        1.1034918868       -2.3969183623
 H         -8.4762837790        2.3621080197       -2.9643995979
 O          3.2917933424       -3.4092740295       -4.7789495274
 H          4.2383113484       -3.2197507529       -4.7582596156
 H          3.1322526226       -4.1842821083       -4.1975145965
 O          7.9456200634       -0.6730591492       -4.2180575979
 H          7.9828144644       -0.4383104102       -3.2713117354
 H          7.8312220718        0.1462230766       -4.7011663690
 O          2.7438037891        3.1623971963        5.1582991282
 H          3.6334739431        3.4698358521        4.9662154757
 H          2.8030680377        2.1781214474        5.1733937352
 O         -5.9352153474       -5.1776474540       -2.6588847111
 H         -5.3354875192       -5.4350990980       -1.9389157818
 H         -6.7240036267       -4.8005199075       -2.2515863437
 O         -8.3031908702       -3.6558942063       -1.7709662703
 H         -8.2944896441       -3.3007236285       -0.8572506767
 H         -9.1917919593       -3.5440938870       -2.1057906499
 O         -9.6548800283        0.9382871959        1.3469948937
 H        -10.5993274574        1.0746741156        1.2938257574
 H         -9.3705262307        0.5429933427        0.4827896173
 O         -1.9289764953       -6.1252031805        0.9819284040
 H         -1.2999628729       -6.6785930946        0.5204107908
 H         -2.6652837015       -5.9556472438        0.3618810422
