  222

 H         -0.5425054112       -1.1597996586        0.9180873604
 C         -0.6112510051       -0.5412956740        0.0100749183
 H         -0.5391308395       -1.1969144471       -0.8712436601
 C          0.5103658647        0.5037878337       -0.0094871839
 H          0.3911098457        1.1518924072        0.8600966293
 H          0.3944399221        1.1152669956       -0.9056411629
 O         -1.7891825170        0.2100258093       -0.0077307040
 H         -2.5646581753       -0.3620747641        0.0026734603
 N          1.8637421187       -0.1172780950        0.0059475208
 H          1.9871272141       -0.7237037739       -0.8163106221
 H          1.9839787968       -0.6890763206        0.8531041603
 H          2.5930828886        0.6072400317       -0.0077051377
 O          1.8481282808        0.8834885812        2.7380428025
 H          2.6982563800        1.0906404691        3.1607105217
 H          1.2164169294        1.5774359865        3.0237424457
 O          1.8988149409       -2.1927910342       -1.7499260936
 H          1.0809492428       -2.7188612720       -1.6247612818
 H          2.6082430828       -2.7321002317       -1.3620378981
 O          3.0892592962        2.2660195063        0.0224023755
 H          3.5194848106        2.6507088051       -0.7650533923
 H          2.2280480294        2.7256419664        0.0697096308
 O          0.7784965251        3.7087852143        0.1298002393
 H         -0.0349293874        3.3329925015        0.4908240267
 H          0.5253500337        4.0513850061       -0.7553891262
 O         -1.6686544381        2.6023236209        1.1526072760
 H         -2.4885612511        2.6533596964        1.6882882014
 H         -1.7311114971        1.7328824912        0.7035987364
 O         -2.7910574070       -2.8968319860        2.0375406835
 H         -2.3228713763       -2.2091409523        2.5527567550
 H         -2.9767104981       -2.4916896830        1.1526054054
 O          0.0553440603        2.7690338548        3.3103660788
 H          0.5980011787        3.5844168350        3.1942171596
 H         -0.5526691168        2.7517534514        2.5492335565
 O          1.2273306567       -2.6779573329        1.4139007898
 H          1.2115478581       -2.3284796176        2.3269043184
 H          0.5541478926       -3.3696834243        1.3649028290
 O         -0.3515425412        4.3908370399       -2.1821460246
 H         -0.4918815100        3.4408648263       -2.4052106828
 H         -1.1594475794        4.6588384422       -1.7059298349
 O          3.6765103847       -1.2774620935        1.6805147615
 H          3.6823815934       -1.5886224474        2.5936312173
 H          4.1729388940       -0.4434036396        1.6903602268
 O         -0.8521083599       -4.4776826893        1.1438995512
 H         -0.9988935110       -5.4056419346        1.3239306519
 H         -1.6099129659       -3.9739555840        1.5213916015
 O         -1.5513350116       -1.0023033334        3.4373566632
 H         -0.6413448113       -1.2381677702        3.6727341148
 H         -1.6699054764       -0.0771454088        3.7375410510
 O         -4.8761990618       -0.1549405716        1.3568203027
 H         -4.6668049996        0.7244426238        0.9532934373
 H         -4.5785718821       -0.1301595890        2.2849813118
 O          2.0235156573       -1.1853879481       -4.1800671484
 H          2.9225869979       -1.3024428484       -4.4983356524
 H          1.9639961470       -1.7148659653       -3.3514049349
 O         -4.2534682988        2.0963379413        0.1791695101
 H         -4.8442683229        2.8474062017        0.3685472664
 H         -4.1064560250        2.1155778802       -0.7790235806
 O          4.0221937895        3.5085795566        2.2305605947
 H          4.5358302682        4.1499388502        1.7194242007
 H          3.6885658401        2.8895646154        1.5461232322
 O         -0.8163185387        1.7992646168       -2.4481897980
 H         -1.7126450301        1.5437869709       -2.1796836008
 H         -0.6102179417        1.2180500452       -3.2001335869
 O         -0.5549121180       -0.2747556062       -4.2660974440
 H         -0.9149266186       -0.9365776509       -3.6380093201
 H          0.3310739084       -0.5909210537       -4.4853922385
 O          2.1426364499        1.1475195690       -2.7770606331
 H          2.0170928453        0.2867774491       -3.2199073274
 H          1.5869125650        1.7657828083       -3.2774664365
 O          4.4415778969       -1.2104819801       -0.9563449559
 H          4.1607027035       -1.4296970596       -0.0525087303
 H          4.9459828627       -0.3753087245       -0.9146947223
 O          4.5831253748        1.5169368518       -3.6528780705
 H          4.7265681613        0.7174709314       -4.1698061004
 H          3.6537769060        1.4336953180       -3.2995414369
 O         -3.6326853871       -1.8575308153       -0.2273138969
 H         -4.1269706084       -2.6649497127       -0.4734964227
 H         -4.2599315084       -1.2744283643        0.2491455541
 O         -3.1627977856        0.4389686431       -2.3754852478
 H         -2.6721987104       -0.3622508600       -2.1314475217
 H         -3.2004067260        0.4232197897       -3.3532527657
 O          5.4468252604        0.7303099440        1.5324986844
 H          6.1566289535        0.0623921009        1.4232282177
 H          5.7474484870        1.5254083994        1.0618148874
 O          1.6143931257        4.7576051087        2.5288068162
 H          2.5159682071        4.3881240303        2.5881186894
 H          1.3556463473        4.6322332230        1.6009618814
 O         -7.0168489915        1.2659943497       -0.0008920420
 H         -7.8812955037        0.8358368130        0.1030927877
 H         -6.4712795035        0.6901133037       -0.5752095505
 O         -5.6371142829       -0.1550584311       -1.8601091948
 H         -6.1022585789        0.3798980547       -2.5462910701
 H         -4.6900332027        0.1316261129       -1.8998367146
 O         -7.1457319186       -2.2277839954       -1.0673112398
 H         -7.3378046564       -2.0000819640       -0.1388075476
 H         -6.5490835238       -1.5198765987       -1.3855245770
 O         -0.1900882804       -3.8653054892       -1.4782910922
 H         -0.4784952334       -4.0443577501       -0.5689727991
 H          0.4950333675       -4.5508553918       -1.6652416592
 O         -1.8022887377       -1.9838521331       -2.6220674404
 H         -1.3325033508       -2.7693719875       -2.2993152815
 H         -2.6629162623       -2.2731524002       -2.9745347114
 O          3.3256138066       -3.7033627551        0.1166445095
 H          4.1363706028       -3.6490465022        0.6352498275
 H          2.6205341637       -3.3102588650        0.6721860612
 O          6.1512581977       -3.1957110286       -1.4783889029
 H          6.9597736821       -2.6859822300       -1.6275685278
 H          5.4528166232       -2.5184983639       -1.3152601456
 O         -4.3302624665       -2.1130308743       -3.5986190376
 H         -4.8299431693       -1.5089448862       -3.0297559628
 H         -4.8420622354       -2.9461218357       -3.5988029635
 O         -7.0632110480       -1.5870443529        1.5914970526
 H         -6.3222999154       -0.9480897339        1.4381280164
 H         -6.6156253429       -2.3779997047        1.9405122085
 O         -3.1524622861       -0.0971510190       -5.0435246969
 H         -3.5265320346       -0.9695546476       -4.8438090660
 H         -2.1837299234       -0.1815462199       -5.0531460914
 O          6.0518727567       -3.5701977112        1.1427996475
 H          6.1487083671       -3.5895330583        0.1587134537
 H          6.4201566829       -4.3888367318        1.4729706649
 O          4.7737515192       -1.3405102175       -3.7117787999
 H          5.7117696408       -1.5410663038       -3.7129700895
 H          4.5136025385       -1.2505931173       -2.7770638828
 O         -5.3519700165       -3.5595866125        2.4285921566
 H         -4.4032913649       -3.2928041469        2.3827013318
 H         -5.4603454393       -4.0474438729        3.2439554557
 O          1.1382748523       -1.4108969583        3.7773113374
 H          1.3668606869       -0.5293692032        3.3752720819
 H          1.9025758571       -1.6282639044        4.3218173123
 O          5.9695911190        0.8859367965       -1.5116795973
 H          6.2524055847        1.6551450878       -0.9962767550
 H          5.5038241911        1.2099846011       -2.3179104027
 O          4.1074374795        3.7137888161       -2.0170748164
 H          3.3315295141        4.1116796245       -2.4881152540
 H          4.5782884512        3.2259859900       -2.7004102652
 O         -2.0893916582        1.4644987557        4.4067707455
 H         -1.2368400743        1.9223153024        4.3722522172
 H         -2.6983977211        2.0443573212        3.9132738014
 O          7.3277036715       -1.1308279194        1.1603876801
 H          7.5488997149       -1.1606567450        0.2000557809
 H          6.8904093597       -1.9804281735        1.3502789991
 O          3.8390695967       -1.3204323043        4.4952443809
 H          3.9783988118       -0.3587324443        4.4474761159
 H          4.5226572307       -1.6682941532        5.0669057715
 O          7.8215705018       -1.0219692784       -1.4810602215
 H          8.6536992606       -0.5185246092       -1.4578837882
 H          7.1354811940       -0.3307545580       -1.6069013331
 O         -2.5460446009        4.4381227272       -0.6455288353
 H         -3.2132357820        4.0717707020       -1.2581037503
 H         -2.2375991748        3.6785183236       -0.1063398772
 O         -3.7664707223        2.9019452410        2.8537981266
 H         -4.6969894075        2.6092905569        2.7436796158
 H         -3.7517014626        3.8502605444        2.6379229963
 O          4.3243947603        1.3283931169        3.8790812892
 H          4.2428252621        2.2893117598        3.8474026991
 H          4.8411304208        1.1140079600        3.0723932434
 O         -5.9124218039       -4.1794433778       -3.0468725646
 H         -5.4977219893       -4.5447741248       -2.2553734598
 H         -6.7318047521       -3.7687279813       -2.7550141613
 O          6.7851450565        2.7608169763        0.2688487777
 H          7.5398253963        2.6450132431        0.8573359593
 H          6.4330356670        3.6573561777        0.3588503889
 O          1.9948914277       -5.3422910514       -1.6654489100
 H          2.4717499333       -4.9869781191       -0.8975740272
 H          2.5473444069       -5.0851795093       -2.4179943627
 O         -4.2717426033        3.1713109549       -2.2810538805
 H         -4.2390938506        2.8389305719       -3.1975142536
 H         -5.2131071023        3.3683214919       -2.1100927136
 O          8.7007875301        1.2113149834        1.6335091748
 H          9.3794596936        1.1398248619        2.3047105816
 H          8.2530312040        0.3464019729        1.5999943175
 O          2.0689975773        4.5916416600       -3.4203893762
 H          1.2444701877        4.7721551244       -2.9454357377
 H          1.8216481647        3.9281075508       -4.0809793113
 O          0.7987123481        2.5185748369       -4.7804202987
 H         -0.1303070472        2.8142939225       -4.7314349480
 H          0.8666139307        1.9951203683       -5.5789386802
 O         -6.3483613770        2.2141278366        2.4914438552
 H         -6.6713079259        1.5537144578        3.1347234104
 H         -6.5398578954        1.8349358140        1.6134168212
 O         -4.2292950133       -0.3948490569        4.0106994530
 H         -3.4846502464       -1.0095644827        3.9864710939
 H         -3.8661995346        0.4022856157        4.4138694555
 O         -7.0162963810        0.0118276792        3.9168860319
 H         -6.1264062315       -0.2186208403        4.2145216037
 H         -7.2367669053       -0.6304188786        3.2268733614
 O         -9.2514953990       -0.1458115223        0.6709324695
 H         -8.6868138342       -0.7862989650        1.1311514289
 H         -9.8382099419        0.2293887714        1.3288722821
 O          9.5469081495        0.9971580294       -1.0004150028
 H          9.3199175894        1.1522016509       -0.0667373362
 H          9.3758382635        1.8168186149       -1.4654320290
 O          5.1393704650        4.9344243703        0.1401036947
 H          4.8053080792        5.8303345149        0.1405085945
 H          4.7775118991        4.5175443997       -0.6723103371
 O         -6.8930535877        3.4085970010       -1.6115386899
 H         -6.9978043105        2.6661279323       -0.9758775029
 H         -6.8316494027        4.1890413560       -1.0518951644
 O         -5.8483589196        4.3182884774        0.7785051049
 H         -6.2778251116        3.9021616811        1.5371328328
 H         -5.2002742032        4.9393603469        1.1315397144
 O         -4.5162636108        2.2071080231       -4.7778471304
 H         -4.0768317197        1.3857251724       -5.0578961688
 H         -5.4497803478        1.9825154216       -4.6767981181
 O         -6.9944414798        1.4005135803       -3.5293617929
 H         -7.8115809148        0.9064535812       -3.3518017744
 H         -7.0897945129        2.2375692571       -3.0500344954
 O         -3.4389670102        5.3595165278        1.6989845518
 H         -2.7263903247        5.8503672343        2.1075792995
 H         -3.1289149603        5.1402756228        0.7891216972
 O         -1.8062468320        3.3610902359       -4.6970242008
 H         -2.7006013941        3.0490303430       -4.8720387670
 H         -1.8756149709        4.0924350923       -4.0789409689
 O         -8.8169901481       -0.2160633779       -2.2197784706
 H         -8.4438469665       -1.0893756549       -2.0385556821
 H         -9.3650961287       -0.0078297444       -1.4580545552
 O          3.9656983872       -4.0557344704       -3.1430030416
 H          4.7259706936       -4.1363880194       -2.5545766728
 H          4.0949919763       -3.2319498509       -3.6263601480
 O         -5.2464229483       -3.9972308175       -0.3457991714
 H         -5.3128601355       -4.1578922323        0.6043741323
 H         -6.0341912929       -3.4651483940       -0.5843671164
