  101

 H          0.4630927076        1.1941025329        0.8323452959
 C          0.5529035761        0.5095402429       -0.0251092074
 H          0.4633421182        1.0989800596       -0.9466436099
 C         -0.5779259334       -0.5149488605        0.0205351874
 H         -0.4518492549       -1.1270258236        0.9278134319
 H         -0.4840892691       -1.1748678654       -0.8448928487
 N         -1.8603253885        0.1647702475       -0.0623309410
 H         -2.6131021662       -0.5138473279       -0.0751527668
 H         -1.9956541839        0.7570092262        0.7508171933
 O          1.7808081027       -0.1833448058        0.0209869107
 H          2.5006908392        0.4507195083       -0.0567171281
 O         -1.9481109623        1.6575843514       -2.2276398762
 H         -1.9361899797        1.0741958335       -1.3986824273
 H         -1.2981712569        1.2436178294       -2.8194587934
 O          4.5758096966       -1.8016869063       -0.8323437090
 H          4.5421935265       -1.5935751871        0.1261550354
 H          3.7722872417       -2.3026845170       -1.0160421716
 O          4.6925311732        0.5942064845       -1.9313746724
 H          4.5821580814       -0.3449728590       -1.6328530474
 H          5.6192311355        0.7827559024       -1.7057908845
 O         -3.8817771009        3.1480768158       -0.7149998193
 H         -3.3291587878        3.2454093656        0.0746712177
 H         -3.2825655365        2.9301929667       -1.4393748435
 O         -4.8423546723        0.7469646965       -0.2074270944
 H         -5.7391261706        0.6369338687       -0.5746057877
 H         -4.5764765722        1.6786337284       -0.3986832262
 O          4.4551991004       -1.0988636851        1.7669018050
 H          3.5787308653       -1.0202474020        2.1628592716
 H          4.8775204936       -0.2283937955        1.8794076217
 O         -4.0633436154        0.4597670639        2.3333505385
 H         -3.5744739399       -0.3632367971        2.4556089994
 H         -4.2671510179        0.5214583151        1.3736275399
 O          1.9333060185       -2.7354933131       -0.8066175863
 H          1.0593275014       -3.0817274258       -1.0569407481
 H          1.8053203337       -1.7841720556       -0.6096211681
 O         -0.1084926121        0.1437246409       -3.6355704021
 H         -0.0965168560        0.1596362888       -4.5931116459
 H          0.7728649604        0.4861286353       -3.3595597300
 O         -2.3009555762        2.6608801644        1.5672934893
 H         -1.5175482622        2.6548904832        2.1557225720
 H         -2.9833124401        2.1770098303        2.0526058620
 O         -1.8711874155       -1.9221382297       -2.8465797928
 H         -1.1935898140       -1.2878808350       -3.1266237438
 H         -2.6898722365       -1.3881236730       -2.7583331186
 O         -3.7254519290       -2.1034565148       -0.1844733511
 H         -3.5140864429       -2.5071272550       -1.0279253646
 H         -4.6997536951       -2.0477031588       -0.1136664040
 O          3.5131378636        1.9253691013       -0.0120629493
 H          4.0095977626        1.4945832794       -0.7587161554
 H          2.9661261573        2.6178234354       -0.4240628503
 O         -0.6341618212       -3.6533055635       -1.2616718278
 H         -0.6893484836       -4.4982613917       -1.7076789642
 H         -1.1371072905       -3.0132062378       -1.8198709064
 O          1.8247990646        3.5134567398       -1.3909239573
 H          2.0339130554        4.4077709000       -1.6582098448
 H          0.8781609862        3.5326785211       -1.0929729292
 O         -0.7176217069        3.5611854801       -0.7551266650
 H         -1.0842104837        3.3677460568        0.1151257712
 H         -1.1566344033        2.9429549648       -1.3771489811
 O          2.2096506285        1.3228792493       -3.0805194583
 H          3.0882254761        0.9871089345       -2.8543463081
 H          2.0841963194        2.1319033408       -2.5579911697
 O         -2.5538981753       -2.0667536499        2.2879651988
 H         -1.9126838014       -2.8048057616        2.2136820563
 H         -3.0034771447       -2.0904248117        1.4257404263
 O         -0.8648543590       -0.4555860101        3.6067166851
 H         -1.4895818707       -0.9993691177        3.0779608650
 H         -1.1062783042       -0.5900873375        4.5233354631
 O         -0.1665136710        2.2135733874        3.1041403887
 H          0.8046771376        2.2215078238        3.0176316114
 H         -0.3977928432        1.3043685305        3.3478194666
 O          2.5014105540        1.7024627594        2.6781432797
 H          2.7164863809        1.8110940278        1.7437490725
 H          2.3333748416        0.7525210399        2.8080587253
 O          1.8097103962       -0.9528331262        2.9779369112
 H          0.8874257567       -0.7765778395        3.2223853308
 H          1.8008464748       -1.8343849819        2.5600035481
 O         -0.7085632330       -3.8772192423        1.5734697236
 H          0.2269226012       -3.8052408075        1.8082464727
 H         -0.7427331282       -3.8141370772        0.6070263377
 O          6.8958658229        0.5309411159       -0.3266246672
 H          6.7984813721       -0.4185752054       -0.2130540993
 H          6.6331720443        0.9288597298        0.5128668104
 O         -3.9693361291       -0.2328051169       -2.5919500293
 H         -4.2137022876       -0.0794655718       -1.6563851642
 H         -3.4449992311        0.5503833159       -2.8166074665
 O          2.0490076608       -3.3848584250        1.7576903294
 H          2.0773635010       -3.1858325467        0.7874562549
 H          2.9357575604       -3.6517707195        2.0035622810
 O         -6.6500403226       -0.3122557966        2.2167304357
 H         -5.7429785715       -0.0240319988        2.4590699173
 H         -7.1091760199        0.4772153388        1.9247745145
 O          5.3777111667        1.4962067814        1.9202243757
 H          5.0042002546        1.8169288132        2.7456064400
 H          4.7697004032        1.8094580219        1.2239324592
 O         -6.3879929014       -2.0292932537        0.2163346290
 H         -6.6674370630       -2.8743988507        0.5672874154
 H         -6.4948754319       -1.3814221284        0.9602474720
 O         -6.8999199107       -0.1126521249       -1.7269696866
 H         -6.2811111719       -0.2549585227       -2.4510282149
 H         -6.9156373075       -0.9352544831       -1.2154723050
