  312

 H         -0.5425054112       -1.1597996587        0.9180873600
 C         -0.6112510051       -0.5412956737        0.0100749178
 H         -0.5391308395       -1.1969144474       -0.8712436600
 C          0.5103658647        0.5037878334       -0.0094871835
 H          0.3911098457        1.1518924072        0.8600966295
 H          0.3944399221        1.1152669957       -0.9056411629
 O         -1.7891825170        0.2100258093       -0.0077307041
 H         -2.5646581753       -0.3620747641        0.0026734601
 N          1.8637421187       -0.1172780949        0.0059475210
 H          1.9871272140       -0.7237037741       -0.8163106224
 H          1.9839787968       -0.6890763205        0.8531041600
 H          2.5930828886        0.6072400318       -0.0077051380
 O          3.2374181103        2.2177840339        0.0452670035
 H          2.4014451722        2.6927840912       -0.1032998053
 H          3.8438480315        2.4774331112       -0.6796540628
 O          2.0620670434       -1.8834254848        2.0616452134
 H          2.8470482870       -1.7826779942        2.6454776529
 H          1.2927821652       -1.7417916942        2.6317105926
 O         -0.3444444194        1.2112385616        2.8672113185
 H         -0.4612546534        1.7202686639        3.6915736574
 H         -0.0321260120        0.3289319316        3.1211823432
 O         -3.7372244107       -1.4634762095        0.6029793656
 H         -3.0469811046       -2.0506096772        0.9582664462
 H         -4.2091249168       -1.1431929670        1.3951980777
 O          1.8208277741       -1.7309191399       -2.2645054610
 H          1.9346388454       -2.7004049304       -2.3021990129
 H          0.9810495260       -1.5347846881       -2.7364886426
 O         -0.2458585824       -1.1767561866       -3.7646685232
 H         -0.7883332895       -0.4895414429       -3.3146730430
 H          0.2887826030       -0.6632152205       -4.4028511576
 O          3.1757200351       -4.4817955804        1.7601964067
 H          2.6397226590       -3.6697159273        1.7270345197
 H          2.7886909187       -5.1082298785        1.1362829244
 O         -2.6678430498       -4.7327058836       -0.0912077914
 H         -3.4752456037       -4.5979309217       -0.6159976112
 H         -2.0535629024       -4.0629679498       -0.4631158545
 O          3.3431843935       -1.3072917747       -4.4193440251
 H          4.2637906611       -1.5162887125       -4.2045783086
 H          2.8732633459       -1.3448051864       -3.5536263208
 O          2.0955308372        0.1708806046        5.3146346384
 H          2.9460876150       -0.0386069984        5.7097917735
 H          2.2450724464        0.1675045149        4.3479263897
 O         -1.4713846889        0.8745103861       -2.7232371877
 H         -1.8723190217        0.7257067286       -1.8505863117
 H         -2.2022629058        0.9619301752       -3.3750448438
 O          0.9369825159        3.5822976093       -0.5977077585
 H          0.3698678831        3.4716416675       -1.3901375956
 H          0.5343001202        4.3063796956       -0.0789229339
 O          1.5836487417        3.2731296980        2.4457862937
 H          1.9821380175        4.0564987700        2.0361838756
 H          0.6217865326        3.4401247915        2.4659470006
 O         -0.9639810452        4.0675792985        2.5186283840
 H         -1.4632777193        3.5216374386        1.8694012112
 H         -1.5459960633        4.2058414964        3.2872912305
 O         -2.8905861642        0.5931598154        2.6824525000
 H         -2.9021460118       -0.1700470309        3.2842371216
 H         -1.9484329249        0.8726522939        2.5965453014
 O         -1.0689945914       -3.1768693569       -1.5827781031
 H         -0.8770523647       -3.8655673701       -2.2507024231
 H         -1.7774231456       -2.6201055732       -1.9597218341
 O         -2.1649615615        2.7998040395        0.5576049217
 H         -1.9169557023        1.8731929929        0.4015433408
 H         -2.0005004070        3.2979587010       -0.2465609531
 O         -3.9740282760        0.8767856901       -1.5703830226
 H         -4.3205881818        1.0385164967       -0.6703419081
 H         -3.7917750333        1.7542458576       -1.9552576171
 O          4.6818056794       -0.3253319742        1.3723391346
 H          3.9435634357        0.0778513212        1.8696786838
 H          4.3383421718       -1.1058407141        0.9048377383
 O         -0.6466117439        3.4090582187       -2.7349158010
 H         -0.8149419927        2.4470877989       -2.8316177917
 H         -1.5171415875        3.8116476288       -2.6232734705
 O         -4.6718099249        1.5869907553        0.8923303974
 H         -4.3416186731        2.4895410807        0.6968107114
 H         -4.0235323817        1.1810601654        1.4955363804
 O         -3.2442404427       -1.7098834119       -2.2173414475
 H         -3.8128267882       -2.3850802747       -1.7905383165
 H         -3.5141026454       -0.8439437261       -1.8648073846
 O          1.4093216226        0.4124613218       -5.1678082686
 H          2.1687396122       -0.1929933611       -5.1930925924
 H          1.4830140769        0.8534852363       -4.2773723118
 O          3.6927469691       -2.2645282794       -0.3266919620
 H          2.8062339418       -2.6074461534       -0.1333324902
 H          4.1607869171       -2.9878851792       -0.7827431277
 O          5.8793545791        1.1798096624       -0.4066237456
 H          5.5390083462        0.6301850760        0.3349593584
 H          6.5348587304        0.6570516583       -0.8914408977
 O         -6.9890705163        2.3886853210        1.8352559776
 H         -6.6955014462        3.2716525402        2.1730308825
 H         -6.1467741689        2.0254615525        1.4518285754
 O         -5.9035767480       -0.8351981386       -0.9024825360
 H         -5.1255911922       -1.1401744345       -0.4149049844
 H         -6.5507756521       -0.5572961438       -0.2344479728
 O          4.7684079229        3.1599056855       -1.9818626758
 H          4.8742965762        2.5439775611       -2.7405690047
 H          5.6743794198        3.4477482549       -1.7849177843
 O         -6.2390355783        0.8439726514       -3.0903824806
 H         -5.5769703075        0.5704252101       -2.4188483874
 H         -5.9784968741        0.4088447532       -3.9066456597
 O         -4.8888582261       -3.6378501761       -1.1698446077
 H         -5.3684627175       -3.4114424872       -0.3508887016
 H         -5.5250809652       -3.5027989264       -1.8918172484
 O         -1.9076441961       -2.7226372156        2.1102425261
 H         -1.2899216718       -3.4473188003        1.8882248114
 H         -2.6764120324       -3.1729374884        2.5072398591
 O          3.9994857591       -0.0142015557       -1.9055678106
 H          4.6406357306        0.5259531818       -1.4046717013
 H          3.9689928401       -0.8801801974       -1.4659229995
 O          1.8202210841        1.3965436593       -2.7680070627
 H          2.6332417845        0.9524568177       -2.4702415013
 H          2.0363858943        2.3122353310       -3.0142365393
 O         -4.6803276002       -1.2496607379       -4.4105091715
 H         -4.0748238730       -1.4349083207       -3.6540089570
 H         -5.5010673954       -1.7021150375       -4.1600862640
 O         -3.2692079091        1.1266600011       -4.6811515650
 H         -2.5885460359        0.9802813063       -5.3632504661
 H         -3.8417095862        0.3437801733       -4.7085573127
 O         -6.6369127606       -2.4404841555       -2.8852313269
 H         -6.4555222524       -1.7735203382       -2.1791101215
 H         -7.5542919083       -2.6899934053       -2.7662083939
 O          2.7561604462        0.8639992071        2.7796662958
 H          3.4357688929        1.3704064819        3.2826204246
 H          2.1706624034        1.5641766518        2.4404838896
 O          4.1402137478       -1.8940730601        3.6789410756
 H          4.4699663078       -1.2290168378        4.3134207541
 H          3.8482505256       -2.6863084390        4.1815887726
 O          1.1943086195       -3.4521942902       -0.1484412802
 H          0.4206484611       -3.2010156290       -0.6830228777
 H          1.5522101392       -4.2638946837       -0.5489142256
 O         -6.3466853949       -3.0053363313        1.0755855807
 H         -7.1289633136       -2.7989325045        0.5150916981
 H         -6.1032387693       -2.1773229012        1.5238765638
 O         -5.1974228820       -1.1306195655        2.8393890604
 H         -4.5840346007       -1.4162141191        3.5287504605
 H         -5.6589195219       -0.3570319475        3.2180954822
 O         -4.5561228475        4.1476428797        0.0218660720
 H         -3.7494168713        4.5357886064       -0.3480603525
 H         -5.1473983727        3.9461493569       -0.7257959410
 O          4.8036546389       -4.2000345745       -1.8958485544
 H          5.6651434376       -4.5354271663       -1.5989795753
 H          5.0404949424       -3.5323535236       -2.5672756640
 O          2.2179102373       -4.3845496412       -2.6916580272
 H          3.1243960406       -4.5440592712       -2.3881843142
 H          2.2961281129       -4.2006535625       -3.6657660624
 O          5.5299947101       -3.0966767970        1.6953183913
 H          4.8173541174       -3.7521834127        1.5947285263
 H          5.2395757337       -2.5551805943        2.4554547143
 O          3.0984338137       -4.1741387226        4.5287253355
 H          2.1399721888       -4.1901718912        4.6872768956
 H          3.2232398911       -4.5720708204        3.6538448582
 O          4.5702431225        3.7300432332        1.8773322732
 H          5.4873196575        3.6977643456        1.5447835007
 H          4.0702061691        3.1053392635        1.3100408155
 O         -0.1396668224       -4.7057110547        1.7375222276
 H          0.4426904871       -4.2223806262        1.1018936241
 H         -0.3738966810       -5.5368518844        1.3194205194
 O         -2.6765259574        4.3796592549        4.5722136232
 H         -3.3011341614        3.6278625359        4.4752377902
 H         -3.1883820563        5.1679100980        4.3896395704
 O         -0.1309247016       -1.4303574730        3.6164366903
 H         -0.4198203169       -1.0618081650        4.4823232393
 H         -0.9236234165       -1.7834605080        3.1566655465
 O         -4.3003464004        2.4090073614        3.9657544957
 H         -3.7449952124        1.7427360779        3.4928412940
 H         -5.0383947768        1.9182804495        4.3479379558
 O         -4.0294610038       -4.3430138613        2.2755556852
 H         -4.8428225460       -3.9578071157        1.9282408440
 H         -3.5595932749       -4.6818649367        1.4924791718
 O         -7.5427735229       -0.2599722649        1.2105434042
 H         -7.5464376036        0.6902013135        1.3667474126
 H         -8.4519273891       -0.5175886279        0.9943787590
 O         -6.2176609789        3.3595384162       -2.0350298209
 H         -7.0411203622        3.3366697678       -1.5228294828
 H         -6.2328821829        2.5116437709       -2.5175924983
 O         -8.3936328834        2.7834524073       -0.3994817504
 H         -7.9067762523        2.6982696120        0.4528829350
 H         -9.1165842989        3.3921469922       -0.2517293756
 O         -8.4755272173        0.1685544213       -1.5754871044
 H         -8.6145557353        1.0326356541       -1.1667542624
 H         -7.7517537484        0.3160079626       -2.2079950487
 O          6.4454606408       -1.7457005002       -0.5199505308
 H          7.1256319517       -1.1434055032       -0.1456812516
 H          5.9936316956       -2.1310224412        0.2527251500
 O          0.3253577821       -4.0375931885        4.3311449207
 H          0.2635378198       -4.4274354979        3.4420934757
 H          0.3023315985       -3.0728174970        4.1912377460
 O         -0.6885314171       -0.1781587064        5.8825223191
 H         -0.8593184673        0.7729530987        5.7477609130
 H          0.2380923719       -0.2215290855        6.1490797863
 O          2.2430353918       -3.6641514957       -5.1950061917
 H          2.6373901609       -2.7728856216       -5.1235127403
 H          1.3184287705       -3.5563541534       -5.4568673597
 O         -1.1899578590        0.3705661650       -6.2410614510
 H         -0.2692385751        0.5606820357       -6.0098231221
 H         -1.2164170497       -0.5279431060       -6.5739998341
 O          6.9766661985        3.2413359735        0.8425038445
 H          7.3179786260        3.8239171319        0.1573275621
 H          6.6181532929        2.4569639782        0.3586132594
 O          6.9189355553       -0.2977300623        2.9650849898
 H          6.0593122779       -0.3716128668        2.5124254737
 H          7.0200926170        0.6454939307        3.1974873825
 O          4.3950744045        2.4239106446        4.1709376057
 H          3.7878196438        2.9262362006        4.7312439880
 H          4.6159691453        2.9997455008        3.4031146198
 O          2.6862112546        5.5625178280        1.1851842531
 H          3.5044126470        5.1966411241        1.5595425267
 H          2.8579378139        5.6408463473        0.2305484863
 O         -3.5195838135        3.2227814892       -2.8865549074
 H         -3.4922412781        2.7232608239       -3.7172581357
 H         -4.4083030933        3.5881488231       -2.8122025356
 O          2.9211154332        5.1126775177       -1.5563661587
 H          3.6871445515        4.5342754344       -1.7166710542
 H          2.2062616094        4.5262345280       -1.2244973629
 O         -0.0843972586        5.7327279629        0.6935148256
 H         -0.4334079915        5.2695628666        1.4886058881
 H          0.7850399127        6.0722668613        0.9391991666
 O          5.7358095983       -2.0693302027       -3.2841784297
 H          5.9670360239       -1.6256735960       -2.4483144016
 H          6.5303092392       -2.0752074521       -3.8194704740
 O          1.8371098755        2.9243821921        5.1309388461
 H          1.9408578477        1.9635779730        5.2706320667
 H          1.7774586482        3.0692461020        4.1614729031
 O         -0.3265411654       -5.1526322235       -3.2630856465
 H          0.6184881480       -5.0946469929       -3.0417403816
 H         -0.4068631376       -4.6224257774       -4.0982113483
 O          8.2109165305       -0.1149485565        0.6467646723
 H          7.8571583058       -0.1856239231        1.5633460611
 H          8.9505069360       -0.7598117153        0.5824649145
 O          5.1633575157        1.3551149915       -3.9391372245
 H          4.6281090709        1.7286195386       -4.6720322350
 H          4.6353279668        0.6355905025       -3.5569029184
 O          7.2975178315        0.1264883602       -2.5937144690
 H          7.9640321915        0.7693186729       -2.2768952907
 H          6.7220891145        0.5984225092       -3.2137273869
 O          8.9803393466        1.6836984286       -1.2268966714
 H          8.7012171183        1.2502165840       -0.3975345540
 H          9.8208317685        1.2361221809       -1.4594742577
 O         -3.0003650076       -1.3748990876        4.5848904059
 H         -2.5598672929       -0.9637895004        5.3354380307
 H         -2.8178598839       -2.3353678131        4.6720574095
 O         -0.7656047114        2.4516814605        5.2479811410
 H          0.1435894564        2.8018735140        5.3843394704
 H         -1.3671135297        3.2029984792        5.2746462173
 O         -8.4477741467       -2.3965325646       -0.5375849336
 H         -9.1972968641       -2.4016763419        0.0677721412
 H         -8.4611719377       -1.5119340621       -0.9531663428
 O          1.9445872707       -6.0318407450       -0.2764133703
 H          2.4771637239       -6.5412922177       -0.8858142884
 H          1.0180521507       -6.3290132338       -0.3820159804
 O         -0.6799866509       -6.4407205267       -0.7577539425
 H         -1.4837341797       -5.9695349376       -0.4594550534
 H         -0.6192688422       -6.2539127412       -1.7027041913
 O         -0.5555457338       -3.3905604730       -5.2070603257
 H         -1.4978100634       -3.4399868418       -5.4747910980
 H         -0.5081011808       -2.5880238611       -4.6487558854
 O          1.8729013084        3.9301794859       -3.7941382044
 H          2.2469561212        4.6027569207       -3.1992169384
 H          0.9150706689        3.9267526228       -3.6499771037
 O         -5.5382672803        4.4393484938        2.5694963814
 H         -5.1249734193        4.5228900339        1.6935250569
 H         -4.9993534605        3.8004664154        3.0697625996
 O         -6.5647006107        0.8635521274        4.0773352862
 H         -7.2952732205        0.2796401408        4.3287240317
 H         -6.8991999865        1.4527168532        3.3753422581
 O         -8.2506023741       -1.2958356576        3.6541771827
 H         -7.7596351669       -1.0370823429        2.8528748593
 H         -7.8859094829       -2.1656021661        3.8961391960
 O        -10.0177452018       -1.4151552825        1.5840925969
 H         -9.6074347747       -1.4997487298        2.4695221772
 H        -10.9234619686       -1.1406075116        1.7172098475
 O          3.3545693245        2.4238076136       -5.5865418797
 H          2.6507507553        1.7969932852       -5.8005383138
 H          2.9224110429        3.1317090081       -5.0851475476
 O          7.4428271322       -4.0792346967       -1.2648233162
 H          7.8604937766       -4.4423018967       -0.4781365274
 H          7.0823414346       -3.2049198046       -0.9742557564
 O         -2.1575107399        5.2114199111       -1.0336735756
 H         -1.4450338874        5.5054725049       -0.4389742303
 H         -2.3552708844        5.9523275974       -1.6060918138
 O          8.1033862548       -3.8190272283        1.4711102179
 H          8.4361699375       -3.9983594660        2.3494837280
 H          7.1668600850       -3.5461424941        1.5907902362
 O          9.8556946750       -2.1149778677        0.1760237903
 H          9.3492239406       -2.7949514846        0.6524577099
 H          9.6398493441       -2.2326849851       -0.7686802758
 O         -3.2023831466       -3.3825647699       -5.3871031665
 H         -3.7329859543       -2.5767672401       -5.2894016537
 H         -3.3231181900       -3.8777011984       -4.5594502566
 O         -2.4017696625       -3.9703680557        4.7315699977
 H         -1.4423252200       -4.1532765417        4.7258279740
 H         -2.8308516746       -4.5947535486        4.1411006994
 O          7.3238840331        2.3242352729        3.3745649759
 H          8.1261082509        2.6591210324        3.7723585785
 H          7.2709569491        2.7064354268        2.4806982290
 O         -6.9352309355       -3.6711017513        3.6931597470
 H         -6.8450545782       -3.6716807457        2.7255840899
 H         -6.0700070144       -3.8821019723        4.0476648691
 O          8.9781896177       -2.0912884957       -2.4462279585
 H          8.4856198674       -2.9173626498       -2.3120369664
 H          8.3261323404       -1.3709567211       -2.4972909779
 O          5.1239365471        0.0402639070        5.2513684566
 H          4.9869608731        0.9483227190        4.9241312642
 H          6.0416194913       -0.1647523930        5.0451354372
 O         10.8907592097       -0.1042450336       -1.6856401571
 H         10.4520472160       -0.7640925950       -2.2380391091
 H         11.0762525891       -0.5507900485       -0.8537139889
 O         -3.1311443937       -4.8796295391       -3.0541376178
 H         -2.2606861064       -5.2734529832       -3.1884714434
 H         -3.7698243561       -5.5880089905       -2.9878032899
 O          7.4465173836        3.8304503472       -1.7987480559
 H          7.7268598446        4.2796842793       -2.5951524649
 H          8.0637708415        3.0849311421       -1.6589674496
