  102

 H         -0.5425054112       -1.1597996585        0.9180873603
 C         -0.6112510051       -0.5412956740        0.0100749183
 H         -0.5391308395       -1.1969144470       -0.8712436601
 C          0.5103658647        0.5037878336       -0.0094871839
 H          0.3911098457        1.1518924073        0.8600966290
 H          0.3944399221        1.1152669956       -0.9056411629
 O         -1.7891825170        0.2100258093       -0.0077307040
 H         -2.5646581753       -0.3620747641        0.0026734602
 N          1.8637421187       -0.1172780949        0.0059475209
 H          1.9871272141       -0.7237037740       -0.8163106223
 H          1.9839787968       -0.6890763206        0.8531041602
 H          2.5930828886        0.6072400317       -0.0077051379
 O          4.4747791182       -1.4784042495       -0.7131770771
 H          3.8642279990       -1.5151813086       -1.4609285939
 H          4.4463567803       -2.3845116549       -0.3416011923
 O          2.0814947655       -1.8124443280       -2.0487566090
 H          1.7609690712       -2.5650635863       -1.5081889625
 H          1.3607406299       -1.5524030098       -2.6469610328
 O          0.0276487803       -0.6186427180       -3.3926380650
 H         -0.5593629211        0.1231691945       -3.1348674486
 H         -0.5923752339       -1.3637958165       -3.4680878949
 O         -2.0831201274       -2.2834436880       -2.9793183855
 H         -2.5385419712       -2.8323009282       -3.6177267045
 H         -2.7577495411       -1.6530744460       -2.6340664861
 O          1.7974523268       -1.7567998584        2.1691501940
 H          1.1972940223       -1.2216916202        2.7342986252
 H          2.6856723383       -1.6238794942        2.5206188362
 O          0.3171083574        0.0558099156        3.4544199858
 H         -0.4853448707        0.5276697921        3.1543475796
 H          1.0398815453        0.6887415939        3.3123308979
 O         -1.7544644419        1.2324230362       -2.5633837953
 H         -2.6015492709        1.0395408816       -2.9746903061
 H         -1.8686303966        1.0404019198       -1.6105445702
 O          3.4111730061        1.8596761528       -0.9088057961
 H          3.0526846011        1.7111625539       -1.7986051691
 H          4.3678841075        1.7377903854       -0.9759933108
 O          1.2224314921       -3.4035054638       -0.0721371144
 H          1.2225900207       -2.9731165791        0.7944225027
 H          0.2895568168       -3.6524699272       -0.2561438327
 O          2.3981965103        1.4836589744        2.3430209272
 H          3.1041203867        0.8132819103        2.2815034406
 H          2.8386259635        2.3292202005        2.4302090619
 O          2.1421716699        1.2141759550       -3.3290005803
 H          1.4965595960        0.4944103351       -3.4231059032
 H          2.6536356444        1.2279746264       -4.1388437505
 O         -3.9810905748       -0.5747768204       -2.1918762249
 H         -4.8263294499       -1.0223678745       -2.0577297262
 H         -3.9946490373        0.1558081401       -1.5406904376
 O         -3.1707897722       -1.9879832999        0.6104392590
 H         -2.7407867681       -2.0556226503        1.4819228190
 H         -4.0685565985       -1.6613471220        0.7958817381
 O         -4.1722320316        1.4687718628       -0.4231496462
 H         -3.5491043843        2.2190027089       -0.4198336680
 H         -5.0052938097        1.7732455005       -0.8324008190
 O         -2.2700841861        3.3934098870       -0.4735476117
 H         -1.6833834937        3.5090613823        0.2945656657
 H         -1.7893175175        3.7318569561       -1.2317030725
 O         -0.4817196728        3.6420747134        1.6009184746
 H         -0.4638341871        4.4823287695        2.0576088188
 H          0.3321169557        3.6246212696        1.0323360700
 O          4.2611747643       -0.4831410494        1.8955332990
 H          4.3746976924       -0.8410989076        0.9986865803
 H          4.9459667447        0.2147885214        1.9589118389
 O         -1.3569895573       -3.6787771583       -0.6971783037
 H         -2.0409281143       -3.2965571809       -0.1292944215
 H         -1.5442125159       -3.3221328430       -1.5799374160
 O         -1.9889728186       -1.7920305668        3.0626669804
 H         -2.7063095865       -1.2817632842        3.4624809204
 H         -1.1726805943       -1.4524188356        3.4417026149
 O         -1.7931455629        1.4263589264        2.4098867158
 H         -1.4100380847        2.3101479561        2.2820942196
 H         -1.8790074102        1.0547195393        1.5085209254
 O         -5.2753849719       -0.3935437480        1.2147209146
 H         -4.8992321341        0.3637420385        0.7258757669
 H         -4.9766300826       -0.2706749336        2.1329948052
 O          5.9519812034        0.8267085206       -1.0257551311
 H          5.5886523443       -0.0699217664       -0.8915694145
 H          6.8806259538        0.7038963516       -1.2283843883
 O         -6.4613700885       -1.2625305244       -1.0783151241
 H         -7.0861988524       -1.9854820507       -1.0195786667
 H         -6.1620201196       -1.0731189762       -0.1708121798
 O          0.2408438385        3.1171229715       -2.4451746519
 H          0.9601573738        2.6668720717       -2.9082996921
 H         -0.5487559327        2.5747888666       -2.5971634794
 O          1.5011779362        3.7173516864       -0.0907384045
 H          2.2914950009        3.1682807343       -0.1911241876
 H          1.0413098541        3.6693373496       -0.9478256165
 O         -3.9197260085        0.2184374039        3.4915737553
 H         -3.1824271410        0.7615304609        3.1408751520
 H         -4.3467791055        0.7408391900        4.1685402809
 O          5.9234258036        1.5781471571        1.6188429211
 H          5.9906435558        1.4229100248        0.6561861918
 H          6.8204375973        1.5670461659        1.9538952922
 O         -6.6200309837        1.5025945458       -1.4926561961
 H         -7.3893633823        1.7984959573       -1.0053714188
 H         -6.6785978164        0.5343900080       -1.5441191819
 O          3.9083737497       -3.8305384121        0.4089702442
 H          2.9833168755       -3.9202725334        0.1246588575
 H          3.9113026059       -3.9818019521        1.3551247945
 O          7.0009889156       -1.1408601137        0.7164975713
 H          7.0163652579       -1.9566639535        0.2121442927
 H          6.7991564354       -1.3797399472        1.6236375432
