  281

 H          0.4630927076        1.1941025327        0.8323452958
 C          0.5529035762        0.5095402431       -0.0251092070
 H          0.4633421182        1.0989800597       -0.9466436097
 C         -0.5779259332       -0.5149488605        0.0205351874
 H         -0.4518492549       -1.1270258238        0.9278134322
 H         -0.4840892692       -1.1748678656       -0.8448928485
 N         -1.8603253887        0.1647702475       -0.0623309414
 H         -2.6131021663       -0.5138473280       -0.0751527666
 H         -1.9956541840        0.7570092262        0.7508171925
 O          1.7808081027       -0.1833448059        0.0209869107
 H          2.5006908392        0.4507195084       -0.0567171279
 O          4.4996182704       -0.4771914846       -0.1150105176
 H          4.4753994155       -0.0320097358       -0.9952405840
 H          4.3064746420       -1.4285575445       -0.2286189078
 O          3.9769133980       -3.0810177826       -0.1511993425
 H          3.2059684908       -2.9218937583        0.4581848658
 H          3.6285740962       -3.4245761084       -0.9945605953
 O          1.8434093237       -2.2594215746       -1.7224479213
 H          0.9558808845       -2.3765402349       -2.1068135751
 H          1.7727412256       -1.4746029050       -1.1443867742
 O          2.1176441324       -2.4030881437        1.5532480687
 H          2.6568505986       -2.0662524348        2.3044597398
 H          1.7087561484       -1.6023506110        1.1847721968
 O          3.8514612369        1.0941277294        1.9483664821
 H          3.9659960415        0.4938745209        1.1870450296
 H          3.0690940950        1.6580924383        1.7987581000
 O         -1.5889262586        1.8651733389       -2.0653811598
 H         -2.2231222158        2.5964938610       -1.8971108852
 H         -1.7670878987        1.1933486443       -1.3395003096
 O          0.4068434761       -0.2870510778       -3.0549947571
 H          0.9937515415        0.4540679766       -3.2952654734
 H         -0.4520883068        0.1067079088       -2.8735558837
 O          3.6336930947       -1.2249683967       -3.4466123226
 H          2.9041902390       -1.5897871059       -2.8963957722
 H          3.7597553242       -0.3141403904       -3.1233907113
 O          0.8079773863       -0.2716445738        3.0625357162
 H          1.3237296278        0.4278679877        3.4956912716
 H          0.8501055028       -1.0172149257        3.6851801000
 O         -1.4114137147        1.1844972601        2.7031352763
 H         -0.6808344779        0.5321734913        2.7833577088
 H         -2.1662086560        0.8403309526        3.2081074863
 O          1.9461798867        3.0491533324        2.1096387524
 H          2.4312535069        3.8480816997        1.8056388942
 H          1.0107707689        3.2470179427        1.9601548201
 O          0.2446883407        3.4756828568       -0.9393942976
 H         -0.1133273027        3.4446325331       -0.0239421725
 H         -0.3873525926        2.9271041271       -1.4588947818
 O         -2.4058497119       -1.0479896098       -2.9851974582
 H         -1.8402667236       -1.7400787224       -2.5992747597
 H         -2.1017033157       -0.9035217004       -3.9037606959
 O          0.6081511301       -1.8131124145       -5.2256588421
 H          0.5673038581       -1.3733420457       -4.3436665467
 H          1.3340215572       -1.3458691407       -5.6860511436
 O         -0.7532991199       -3.0321097697       -2.1918671722
 H         -0.6915178331       -3.4562714825       -3.0857390176
 H         -0.8702537520       -3.7658086805       -1.5836581126
 O         -0.4032027025       -4.2184778061       -4.5013671205
 H          0.0415940718       -3.4919697657       -4.9695603586
 H          0.3080742037       -4.7773332346       -4.1196236231
 O          0.9703433300       -4.5466880959       -0.4092898881
 H          1.4379560771       -3.7516443718       -0.7198131851
 H          1.5740713006       -5.0348687033        0.1952260437
 O          3.6292274735       -1.2805296618        3.4467412477
 H          4.4923619904       -1.7276032061        3.4697224578
 H          3.7586539190       -0.3977551417        3.0668182443
 O          5.1529517341       -4.7120807155        1.6862185236
 H          4.7737758942       -4.1432371685        0.9908693956
 H          5.2854670544       -4.1295218552        2.4513205230
 O         -0.7346353432        3.4855620554        1.5360517642
 H         -1.0400120578        2.6532805422        1.9501284034
 H         -1.5432464949        4.0126520461        1.4327959219
 O          1.9088403095        1.7472394790       -3.8439088588
 H          2.8518468110        1.9369304315       -3.9950478421
 H          1.4631139437        2.6194655866       -3.8084172015
 O         -2.0720778792       -1.6761526344        2.9526724384
 H         -1.4594167315       -2.3163892694        2.5645829528
 H         -1.7598095900       -1.5146122525        3.8748726915
 O         -0.9709397341       -3.5330274949        1.1106241892
 H         -1.5506236360       -3.0815298093        0.4841851531
 H         -0.2373890042       -3.9331740528        0.5939991928
 O         -4.2815435275       -0.4263925413        1.7597557113
 H         -3.4552214409       -0.6789676255        2.1981128308
 H         -4.8841239266       -0.1447193386        2.4533311152
 O         -4.1731167407        1.8834387092        0.3139371883
 H         -4.2500304949        1.1094514865        0.8967020171
 H         -4.1291522568        1.5235435846       -0.5901307182
 O         -4.2664467053        0.6960592076       -2.1146756507
 H         -4.8104067144       -0.0452011882       -1.7909739226
 H         -3.4759126355        0.2673504303       -2.4783012293
 O          6.8925749817        0.0223965479        0.8566973897
 H          5.9853157475       -0.1792001523        0.5515102131
 H          7.4324631242        0.0904298228        0.0465897307
 O          6.3961984838       -1.2711825053       -2.9889015623
 H          5.4524344623       -1.2677306182       -3.2171180862
 H          6.5434309834       -2.1162114255       -2.5200740284
 O         -3.3390000085       -2.4821208509       -0.0332539087
 H         -3.6356871123       -2.5364856294        0.8880685427
 H         -4.0555302234       -2.0180139493       -0.5004861139
 O         -7.0291435056        0.5803139275       -0.0030345530
 H         -6.6037095772        1.0464315210        0.7413754169
 H         -7.2589767714        1.2177243124       -0.7187840589
 O          2.7760386729        2.4013579277       -0.5913973564
 H          3.3992817563        3.1553724601       -0.6217695799
 H          1.8962826790        2.7882118315       -0.7451644936
 O         -6.4495926295        1.4195290858        2.4833273278
 H         -6.9220913528        0.6213991395        2.7939235899
 H         -7.1216453082        2.1112933657        2.3490414550
 O         -3.5749842529       -5.0103676857       -0.9399325880
 H         -3.4278811811       -4.0752006693       -0.6905615553
 H         -3.3733981525       -5.0531663195       -1.8910047482
 O         -5.5904652730       -1.3304145341       -0.9598082124
 H         -6.1984528169       -0.6238297171       -0.6266051577
 H         -6.0699772879       -1.8431434737       -1.6613692410
 O         -4.1832914266       -3.2548057125        2.6674887643
 H         -3.8155933973       -4.1311018890        2.4151134487
 H         -3.3992754400       -2.6950741326        2.8809872671
 O         -6.6267490885       -2.8588526670       -2.8026960189
 H         -5.8665497482       -2.8047578457       -3.4184064487
 H         -6.5226683351       -3.6746190328       -2.2695898799
 O          4.3305780588        1.0546215667       -2.2220912380
 H          5.1611739005        1.5581186667       -2.1056088683
 H          3.6272791019        1.5968297330       -1.8019397177
 O          6.6163994010        2.2832501653       -1.4526937561
 H          7.3452372065        1.6504298651       -1.4327188646
 H          6.3939456295        2.4461089312       -0.5072324918
 O          6.4475257070       -3.4485027265       -1.4360231144
 H          7.0681038842       -3.8560246775       -0.7962524656
 H          5.6675693853       -3.2402112711       -0.9042597313
 O          3.9807125673       -4.0324728101       -2.7388576652
 H          4.9141855680       -4.2449770331       -2.6209199189
 H          3.9401065464       -3.2387104557       -3.2850229340
 O         -5.6038039516        3.0237540569       -2.5578189267
 H         -5.1031213691        2.1873669812       -2.5359340206
 H         -6.5351065167        2.7546612839       -2.5882439511
 O         -3.1098887274        3.9973873035       -1.6028013740
 H         -3.1819555712        4.0958625697       -0.6348630939
 H         -4.0043601946        3.8516485844       -1.9395162339
 O          4.4575616580        4.4082300142       -1.0997572597
 H          5.3819968648        4.1619098200       -1.1740699372
 H          4.1492493916        4.5941117038       -2.0224896324
 O          2.6215940070       -0.1498748913       -5.7864876075
 H          3.1478494816       -0.6059762380       -5.1075511831
 H          2.2022142749        0.5891869589       -5.3175659296
 O         -3.2089351890        4.5015477856        1.1406629187
 H         -3.8813833965        5.1832410623        1.0997715926
 H         -3.5635869440        3.8357085534        1.7771361448
 O          5.9695136444        2.6682158910        1.1172885046
 H          6.6496137928        2.2674854551        1.6903128541
 H          5.1652383493        2.1495381723        1.3063476961
 O          0.8860257356        4.1929979553       -3.5422768884
 H         -0.0206582787        4.3336817431       -3.8970707200
 H          0.7712210682        4.1845611575       -2.5831394972
 O         -6.2644333234       -4.6898934618       -0.8723463272
 H         -5.3295972795       -4.9772479535       -0.9215961128
 H         -6.3461213108       -4.2119721900       -0.0349475188
 O         -6.3781912818       -2.7228238041        1.2100143725
 H         -5.6401863312       -2.9650168775        1.8023796896
 H         -5.9838389952       -2.1405292352        0.5241028862
 O         -4.2185435839        2.9483922774        3.0768490398
 H         -5.0239977599        2.4876824994        2.7980505083
 H         -3.7628872876        2.3095502273        3.6397727218
 O          8.2413834543        0.0086607222       -1.4655543666
 H          8.8434708868       -0.7030812914       -1.1819417121
 H          7.6105464592       -0.4210573949       -2.0739957598
 O         -4.4622419990       -2.2267919573       -4.2399014445
 H         -3.7918348430       -1.8723617769       -3.6183833846
 H         -4.7828452160       -1.4254925814       -4.6905105253
 O         -4.9673034543        0.3555883374       -4.9744182048
 H         -5.7177330312        0.8796443616       -4.6933533694
 H         -4.1780959103        0.9127142319       -4.8304949870
 O         -1.1113119352       -1.2148062794        5.3858042422
 H         -0.9043471480       -0.2616641047        5.4830155761
 H         -0.2554789662       -1.6629465714        5.4419851528
 O          1.1418975846       -4.2748659410        3.2748649633
 H          1.2413400737       -3.6392766394        2.5421371262
 H          0.1890537667       -4.3801472223        3.4236919810
 O         -2.8477967656       -5.3651247731        1.7565526528
 H         -2.0583130174       -4.8143437100        1.5622831444
 H         -3.1856530582       -5.6226589701        0.8882933939
 O         -2.5917768508        1.7389530150       -4.5901594294
 H         -2.2315997545        1.6800564169       -3.6816647563
 H         -2.1326356996        1.0678903764       -5.1114933625
 O          1.5015634100       -5.3752422703       -3.0266399183
 H          1.2083717671       -5.3121304354       -2.1033043047
 H          2.3973837764       -5.0134042701       -3.0377202084
 O          3.6320767715        4.6319141481       -3.5884398414
 H          3.9490075158        3.9020164865       -4.1413089470
 H          2.6671297190        4.6508221148       -3.6832962521
 O          2.0567679541        1.7714254630        4.4740197800
 H          2.9669155197        1.8194373785        4.7930992989
 H          2.0128709283        2.3757481009        3.7058668727
 O         -7.6370536963       -0.9670882539        2.9152156444
 H         -7.2191067573       -1.6191492322        2.3180887481
 H         -8.4682595960       -0.7231576121        2.4676545327
 O         -0.5397975117        1.4447936170        5.3850134142
 H          0.4183923499        1.5778641530        5.3286233989
 H         -0.8802599111        1.7121302416        4.5185166561
 O         -9.3945326932       -0.2294997198        0.9697322804
 H         -9.6227231646       -1.0546694037        0.5297592938
 H         -8.5396353108        0.0474753070        0.5671130513
 O          7.6980742415       -4.3921065266        0.7203477554
 H          6.8779409674       -4.7905228435        1.0666075609
 H          7.8805110046       -3.6489039867        1.3132445060
 O         -8.7221136536       -2.6002972360       -0.3736166420
 H         -7.9994608649       -2.7074098703        0.2613352054
 H         -8.6811530539       -3.3710972450       -0.9438133149
 O          2.5314573030       -5.7289346927        1.3889160807
 H          2.0880373294       -5.4385491768        2.2028153172
 H          3.4789222440       -5.5878618600        1.5298331163
 O         -1.7186084674        4.3590748783       -4.0901569692
 H         -2.1809353493        4.4648919519       -3.2481860592
 H         -2.0799546622        3.5492798829       -4.4835135726
 O         -3.4129681278        0.6205482460        4.4682694049
 H         -4.0995682762       -0.0717765569        4.5335933434
 H         -2.9327550671        0.6040636718        5.2983870525
 O          4.3272663582        2.2593567533       -4.9167414610
 H          4.1076725350        1.8567816973       -5.7598267596
 H          5.2141576316        1.9115305756       -4.6746627829
 O          7.9684643231       -1.9567360678        2.0837704622
 H          7.4696460108       -1.2296027170        1.6064660907
 H          8.5435753851       -1.4164298047        2.6910472835
 O         -5.3096728389       -1.3210003316        4.4394476683
 H         -5.0284821806       -2.1225732696        3.9779009199
 H         -6.2316428410       -1.1751936893        4.1935620738
 O         -5.8650928991        3.8947751803        0.0472408400
 H         -5.2240875107        3.1841093601        0.2895943159
 H         -5.9616870497        3.7999149840       -0.9145539359
 O          5.9052752412       -2.7602693415        3.5128571152
 H          6.6993097015       -2.4559230380        3.0011870763
 H          6.2065512941       -2.9450643504        4.4016246441
 O          4.8631435558        2.1591409600        4.2587009543
 H          4.8626081714        3.1060116354        3.9991644682
 H          4.5292924978        1.6957160515        3.4739580336
 O          9.5432608136       -2.0072046893       -0.1674083515
 H          9.0333305477       -2.0532883528        0.6691527546
 H          9.5991347806       -2.9086152170       -0.4879663978
 O         -3.0555699685       -4.6093477313       -3.5791246277
 H         -3.5965773625       -3.9265906517       -3.9943854929
 H         -2.2134849104       -4.6287253159       -4.0510042649
 O          9.2556543768       -0.0943172628        3.3356317876
 H          9.8063518606        0.1902852899        2.5854469332
 H          8.5592671058        0.5817988449        3.4031618537
 O         -1.7441298911       -0.7060255539       -5.5774418854
 H         -0.8687073727       -1.1602426687       -5.6266419247
 H         -2.3705085577       -1.2059424540       -6.1007054513
 O          1.4480109470       -2.1893408118        4.9372651397
 H          2.3358227943       -1.8549801134        4.7540984086
 H          1.3953573994       -3.0598547454        4.4902887019
 O         -1.4951618893       -4.2524346335        4.0097534491
 H         -2.0757412466       -4.9325385531        3.6553239072
 H         -1.8483144279       -3.9474727388        4.8464491186
 O         -7.9619721947        3.4176790623        1.5010395011
 H         -8.1452515441        4.2175210480        1.9900154056
 H         -7.1937016184        3.6348503764        0.8975674659
 O          7.3832658804        1.9567905325        3.3679563434
 H          7.8131926379        2.7609041295        3.6605371313
 H          6.5215681912        1.9200082707        3.8455401049
 O          5.0647981062        4.5040264642        2.9726554207
 H          4.3248703134        4.9864026779        2.5827494429
 H          5.4983006736        4.0646068351        2.2204150635
 O         -8.0190541031        1.8660350733       -2.0743197379
 H         -8.8043934239        2.1489966089       -1.5552492827
 H         -8.2424647167        0.9829688554       -2.4239926454
 O          3.0975367094        5.2558320056        1.1425608400
 H          3.6637282220        5.0912591011        0.3702492572
 H          2.3076968309        5.7064027463        0.7879028321
 O         -9.8559134648        2.3093540481       -0.1888345276
 H        -10.0062024888        1.4396479103        0.2104487492
 H         -9.2860130421        2.7799611291        0.4424931428
 O          6.7116792554        1.2780447158       -4.2326544250
 H          6.9709103134        1.8103315880       -3.4747709877
 H          6.6926315385        0.3572249027       -3.9388202684
 O         -8.4285251024       -0.7731637280       -2.5161098934
 H         -8.7034432068       -1.2435117635       -1.7155871133
 H         -7.8638561231       -1.4037713352       -2.9802729647
 O          0.7676824765        6.0427567196       -0.0064109622
 H          0.5587676674        5.2306557766       -0.4943889203
 H         -0.0082416050        6.2530261406        0.5139303437
 O         10.3722319288        0.4873607829        0.8708059784
 H          9.8539694277        1.0195248391        0.2641888702
 H         10.4157719429       -0.3966250360        0.4837696089
