  146

 H          0.4630927076        1.1941025328        0.8323452958
 C          0.5529035761        0.5095402430       -0.0251092077
 H          0.4633421182        1.0989800596       -0.9466436098
 C         -0.5779259333       -0.5149488604        0.0205351875
 H         -0.4518492549       -1.1270258237        0.9278134321
 H         -0.4840892691       -1.1748678656       -0.8448928486
 N         -1.8603253885        0.1647702475       -0.0623309409
 H         -2.6131021662       -0.5138473280       -0.0751527666
 H         -1.9956541839        0.7570092262        0.7508171932
 O          1.7808081027       -0.1833448059        0.0209869107
 H          2.5006908393        0.4507195084       -0.0567171281
 O         -1.5280678179        1.1981777035       -2.5123347212
 H         -1.6848452748        0.8855007305       -1.5826603141
 H         -2.0899294943        1.9794373322       -2.6310190895
 O          0.7885023088        1.9016138445       -3.7160888630
 H          0.8318878070        1.2575867256       -4.4462778219
 H         -0.0276447710        1.6440045099       -3.2414710782
 O          3.1826259971        1.0840269019       -2.8027808452
 H          2.9217097480        0.1389832157       -2.7448763422
 H          2.4162542218        1.5120441392       -3.2348280324
 O         -1.5843168111       -1.1878126219       -3.7645513992
 H         -1.5216878156       -0.2916096926       -3.3772022237
 H         -2.4072157552       -1.5408208761       -3.3879353318
 O          3.1120117076        2.2356549997       -0.4252997570
 H          3.1783554970        1.8785845253       -1.3460446742
 H          4.0168815643        2.4584110492       -0.1687841065
 O          2.4771299910       -1.4448921881       -2.2992385182
 H          1.7281414808       -1.9733239228       -2.6704899236
 H          2.1875657788       -1.1793947223       -1.4072608963
 O          0.4153846865       -2.8542621975       -3.0393071544
 H          0.1077958618       -3.3216127737       -2.2453104606
 H         -0.3385090157       -2.3048358126       -3.3384401061
 O         -4.6290941514        1.1976778285       -2.1708390454
 H         -4.4865505982        1.5940941367       -1.2969758280
 H         -4.3024886279        1.8534625934       -2.7922055318
 O          2.3567853472        1.9187120568        2.3204456640
 H          3.1880905095        1.4523599517        2.4841005091
 H          2.4520737980        2.3094768075        1.4448831782
 O          0.7925290780        3.5849442243       -1.3688742677
 H          1.6046631903        3.2788730299       -0.9397889681
 H          0.8377162042        3.2650885683       -2.2786353626
 O         -1.6052160271        3.3276763940       -0.0812842666
 H         -1.3709466879        3.0914640732        0.8287721707
 H         -0.7485311886        3.4392747668       -0.5399502174
 O         -4.1221858613        2.1620118965        0.4173987620
 H         -3.3093094524        2.6081405783        0.1363689417
 H         -4.0735587981        2.1915053896        1.4092063874
 O         -3.7663066462       -1.5059199351       -2.1674262723
 H         -3.9760141316       -0.5570062880       -2.1679500239
 H         -4.6233016131       -1.9626988160       -2.3148171758
 O          1.5050066992       -1.4545929874        2.4526415557
 H          2.1543452492       -1.2677859661        3.1898027528
 H          1.8209306793       -1.0123657131        1.6441062729
 O          4.0490678464       -1.4469943382        0.4121885922
 H          3.5619291779       -2.2011052246        0.0320084801
 H          4.5390229153       -1.0328643767       -0.3220873496
 O         -0.9687446141        2.3546553181        2.4949804746
 H         -0.7899336510        1.4261869513        2.7981948660
 H         -0.3412493534        2.9087690900        2.9620494375
 O         -0.6363640926       -0.1032193872        3.3648983788
 H          0.1593015157       -0.5867956945        3.0544199583
 H         -1.3906325214       -0.6303927182        3.0365012396
 O         -2.8630234838       -3.0816615308       -0.1081753615
 H         -2.7807198435       -2.4843875548        0.6575708553
 H         -3.1322428895       -2.5328058171       -0.8709255373
 O         -2.5586295363       -1.6926696616        2.2791067792
 H         -3.3082490085       -1.4125597786        2.8288744251
 H         -2.2561724553       -2.5665761407        2.6004021036
 O         -4.8961999723       -0.4725418712        0.3978295060
 H         -5.5952640538       -0.3901454000       -0.2885729314
 H         -4.4718390871        0.4026535538        0.4320752728
 O         -0.3204020631       -3.8611629589       -0.6037519009
 H          0.0841547820       -3.9159565567        0.2670337339
 H         -1.2645125955       -3.6491750227       -0.4625094264
 O          4.6539212509        0.2960117359        2.3671068704
 H          4.2828618914       -0.3264151678        1.7121761193
 H          5.5241241187       -0.1235555624        2.6003339957
 O          1.1641788112       -3.9623555758        1.9183493196
 H          1.2934074443       -2.9957959834        2.1494080557
 H          1.7147943544       -4.4478527767        2.5355138855
 O         -3.6818064460        2.0796970158        2.9898240423
 H         -2.7247583950        2.2451362589        2.9841344887
 H         -3.8220615777        1.1925040568        3.3609690918
 O         -6.9582393929        0.0408580040       -1.2515157196
 H         -7.2002342801        0.7744306018       -0.6379462523
 H         -6.4151203922        0.4643673830       -1.9322098938
 O          5.4160171818        0.1194262664       -1.3965884975
 H          4.8472389699        0.5029800393       -2.0767909968
 H          5.5777536957        0.8485957680       -0.7505587157
 O          5.7107072456        1.9476028456        0.5125900757
 H          5.3170667040        1.4659646534        1.2717252776
 H          6.6730537906        1.8856753888        0.6635103397
 O         -7.0061528130        1.9631179519        0.5910308038
 H         -7.0378368686        1.4724211514        1.4290713948
 H         -6.1190779821        2.3411477977        0.5386572781
 O          5.1857486840       -3.2341924569        2.2412652154
 H          4.7335573801       -2.6058133181        1.6525589699
 H          5.6556148986       -3.8289172874        1.6508989443
 O         -5.5654164600       -3.1551193302        0.4883971754
 H         -4.7609826579       -3.6673408476        0.3327728074
 H         -5.2452957459       -2.2493189355        0.6312779333
 O          6.8472456180       -1.1035176780        2.6205178724
 H          6.4054837650       -1.9197313496        2.9099058164
 H          7.0472206561       -1.2790299907        1.6737583055
 O          7.1849971517       -1.5914407338       -0.0189435359
 H          6.7869133406       -2.4699897486       -0.1585004201
 H          6.7046589175       -1.0022665517       -0.6156623852
 O          2.7881607181       -3.7334664009       -0.3355332084
 H          2.2037605361       -3.9317162182        0.4154313937
 H          2.2515773431       -3.7969684914       -1.1301445922
 O          5.6422372740       -3.8203562591       -0.6166867107
 H          4.7369544734       -4.0684343954       -0.3902405700
 H          5.5560880633       -3.4584711127       -1.5210952606
 O          5.0103453491       -2.3903853403       -2.8193453653
 H          4.0770904996       -2.1444106082       -2.6861353877
 H          5.5065523591       -1.5693964762       -2.7742180186
 O         -6.2226839608       -2.5615143959       -2.1151978122
 H         -6.1274550825       -2.9545328016       -1.2278880510
 H         -6.7653293700       -1.7723772253       -2.0033982896
 O         -4.4003533193       -0.4633431337        3.8870788355
 H         -4.5137658488       -0.5612347616        4.8311999851
 H         -5.2982042631       -0.3490297094        3.4959761482
 O         -2.9662283186        3.5274699771       -2.4722974017
 H         -2.5903348716        3.6500840399       -1.5841045617
 H         -2.6131431028        4.2352031752       -3.0119497557
 O         -6.5848170238       -0.0910375439        2.4359074445
 H         -7.3033229423       -0.7133093962        2.2207790746
 H         -5.9324384351       -0.2396584397        1.7138934218
 O         -8.0295863193       -1.8470033512        0.9764970457
 H         -8.0669369914       -1.3753374303        0.1386939251
 H         -7.3857365920       -2.5585599257        0.8668997415
 O         -1.5386282393       -4.1596063877        2.5747169070
 H         -0.5779920187       -4.1403977855        2.4183650228
 H         -1.9272988455       -4.6306595883        1.8337467667
 O          0.7291067370       -0.4020957167       -5.1772200478
 H          1.3393922843       -1.1023563358       -4.9353577112
 H         -0.1526481661       -0.7328683448       -4.9569382706
 O          8.1743020430        1.0009986243        1.1074335797
 H          8.0444090571        0.6087565862        1.9777824755
 H          8.3178697437        0.2580647316        0.5116382635
 O          3.0570674470       -0.7373000931        4.4001359104
 H          2.5162892965       -0.0159249256        4.7820219112
 H          3.7892064847       -0.3115739245        3.9288590116
 O          1.3241955809        1.3118458135        4.8216654416
 H          0.5098613669        0.8321004478        4.6251500274
 H          1.6210204179        1.6930892039        3.9811179991
