  611

 H          0.4630913547        1.1940979730        0.8323402334
 C          0.5529041989        0.5095336923       -0.0251096893
 H          0.4633417729        1.0989782835       -0.9466444979
 C         -0.5779277873       -0.5149494335        0.0205383998
 H         -0.4518489128       -1.1270240796        0.9278107429
 H         -0.4840899380       -1.1748685162       -0.8448931736
 N         -1.8603243477        0.1647727905       -0.0623291507
 H         -2.6131048908       -0.5138485580       -0.0751534210
 H         -1.9956536930        0.7570087618        0.7508159044
 O          1.7808089935       -0.1833412721        0.0209842645
 H          2.5006899333        0.4507150380       -0.0567193361
 O          1.7521728707       -0.1581498064        5.0210039208
 H          0.8718020381       -0.4054316511        5.3820643003
 H          1.7028370167       -0.4107343946        4.0803246281
 O          1.2418515747        3.8575790041        1.3152323818
 H          1.2949968572        4.8031270041        1.0724469694
 H          1.6538395482        3.7805174938        2.1887388371
 O         -1.7881828971        1.9714859910       -2.0354059731
 H         -2.4966668926        2.6165411952       -1.8336365703
 H         -1.8261042845        1.2534142169       -1.3509891377
 O         -0.2433656572        3.9322123850       -1.0597628484
 H          0.6651844172        3.9505684261       -1.4161634841
 H         -0.6962558089        3.2083950609       -1.5374317691
 O         -1.4881798831        3.0520266701        1.2352950853
 H         -0.8918435692        2.6217559368        1.8814723811
 H         -0.9244212011        3.3617154648        0.5044611094
 O         -3.9566202487        1.9751482268        1.0259702694
 H         -3.1214600476        2.4772459651        0.9868179977
 H         -4.6590321903        2.6294874855        0.8233360711
 O         -0.1409170510        1.7950528173        3.1299205915
 H          0.8260139456        1.7292660640        2.9670877138
 H         -0.5203280150        0.8981702591        3.1010071676
 O         -4.5320376507        0.9506847194       -1.4817824645
 H         -3.9140429761        0.2630219435       -1.8204106583
 H         -4.1447964937        1.3190880784       -0.6718286386
 O         -1.5306174449       -0.4239683422        3.2326076535
 H         -1.6717611401       -1.2963008793        2.8123837020
 H         -2.4089465402        0.0024584119        3.3274640568
 O          2.8880226906        2.3942377857       -0.1369513488
 H          2.7651565396        2.7097567387       -1.0512219475
 H          2.1929802423        2.8362421270        0.4002393922
 O         -2.9144896616       -0.8901695703       -2.5127793327
 H         -3.2411145795       -0.6996447031       -3.4218153986
 H         -1.9617676159       -0.6835947031       -2.5315593905
 O         -2.5156666245        1.9653963330       -4.6203136154
 H         -2.1675968109        1.9338315531       -3.7050102984
 H         -2.9295250366        2.8388027346       -4.7408485798
 O         -0.2379314937       -0.2559063826       -2.9634341547
 H         -0.3269038205        0.7034597111       -3.0533058958
 H         -0.4388197566       -0.6129181704       -3.8584252483
 O          1.7295822204       -1.2682078345        2.5505429667
 H          2.5484038830       -1.7741639576        2.6462857042
 H          1.6705080112       -0.9795435562        1.6191171491
 O         -0.7541518674       -5.3656781158       -0.3267500480
 H         -0.3941411927       -5.6674334666       -1.1738084866
 H         -0.8082230175       -6.1466618302        0.2613067083
 O         -0.7497797269        4.2374637303       -5.3815378558
 H         -1.0306469631        4.8049493411       -4.6383234232
 H         -1.5248030824        4.1057655934       -5.9311045849
 O          2.0507671035        3.5945359951       -2.3917258940
 H          1.4891877486        2.9737806965       -2.9080899890
 H          2.3551432177        4.2560174122       -3.0381994228
 O          2.3943167624        1.5221231467        2.6043710212
 H          2.6887464836        0.6058984529        2.6294356613
 H          3.1311724650        2.0581528730        2.9357852250
 O          4.1237190229       -0.9380245506       -0.9968920361
 H          3.7983907829       -1.6535949146       -0.4218164163
 H          4.5955686076       -0.2954161688       -0.4379655768
 O          1.5802955605       -2.1949730049       -1.8007863674
 H          1.6954769703       -1.5055954314       -1.1265835314
 H          1.9022427434       -3.0366507047       -1.4477477262
 O          2.5309065283        0.6316942404       -2.6976906853
 H          3.0920105701        0.0619861101       -2.1580397895
 H          1.6571189771        0.2191889890       -2.7555296844
 O          0.3413354172        2.2508360698       -3.8427448901
 H          0.8400969781        1.6581271539       -4.4399515460
 H         -0.0959170128        2.9125407370       -4.4027955433
 O         -2.4954380916       -2.7063546102       -0.4349816964
 H         -2.8606633342       -3.6151549581       -0.4870430287
 H         -2.2090394484       -2.6127181897        0.4921203188
 O         -0.8969827368       -2.9800537185       -2.5978892116
 H         -0.1252253464       -2.4041155925       -2.4729525286
 H         -1.4718052286       -2.8610666373       -1.8163121643
 O          0.6878537336       -3.7606263480        1.1861853569
 H          0.2117483589       -4.2862554134        0.5077974777
 H          1.1597394535       -4.4076188656        1.7504048535
 O         -6.9795549140        1.2494264494        2.0712754541
 H         -7.8073619078        1.6833973816        1.8095421565
 H         -6.7427029089        0.6631431399        1.3179603773
 O          5.7906960233       -1.9458390298        1.1118203191
 H          5.2024083602       -1.4442237175        1.6823984148
 H          6.3439022238       -1.2871105460        0.6301932610
 O          5.9637584062        1.5598713475       -1.8841948809
 H          5.7790682598        1.2224246368       -2.7851017023
 H          5.2918935230        2.2413649364       -1.6869329158
 O          4.5217152148       -0.2599456191        3.0576906588
 H          4.6616726769        0.3282344641        2.2730278485
 H          4.6492275404        0.2927060354        3.8413943340
 O          3.1636596903       -2.9646684794        0.5541774726
 H          3.5564843975       -2.9606270963        1.4368324266
 H          2.2136063020       -3.1727362888        0.6761809347
 O          2.0332043125       -1.9387339461       -4.3509943760
 H          2.9574382458       -2.0756777336       -4.6075123517
 H          1.9685857050       -1.9690998291       -3.3728474136
 O          4.8807937411        0.9642089561        0.7915283494
 H          5.6931290611        1.5042817312        0.7580320629
 H          4.1621271295        1.5661360796        0.5067597076
 O         -6.3034381224       -1.0516416759       -3.8464310105
 H         -6.7767499537       -1.4789317561       -4.5981543558
 H         -5.4153134795       -0.8067182968       -4.1873255616
 O         -5.2192866973        2.8131946955       -3.3298046386
 H         -5.0515426633        2.0837467405       -2.7002385256
 H         -5.3132468123        2.3973477167       -4.2094722414
 O         -4.1911188305       -0.7991801051        1.6542608817
 H         -4.2059014614        0.1397913168        1.4382625415
 H         -5.1033960211       -1.0418748005        1.8822786537
 O         -0.7236593926       -0.6896451122        5.6780240528
 H         -0.9994211570       -1.6051570458        5.8701828237
 H         -1.0396538162       -0.5421738726        4.7451074745
 O          3.8228797925       -2.9948840217        3.2326279318
 H          3.8251593848       -2.4838927973        4.0600857883
 H          4.7356170760       -3.3597749515        3.1654959894
 O         -3.2800004985        2.6206841513        5.8194209118
 H         -3.0323375720        1.9301833816        6.4690618013
 H         -2.4221203507        3.0367800371        5.5824122633
 O          4.7209895779        2.6536164556        3.3428015213
 H          5.6654725697        2.4169827789        3.4183063142
 H          4.6885349635        3.3179293831        2.6156390075
 O          4.2278573168       -4.5414183347       -3.1040538750
 H          5.0308349204       -5.0374281869       -2.8588891966
 H          4.5009650455       -3.5941361496       -3.1484096274
 O         -3.3786182692        4.0167358138       -1.7104172042
 H         -3.6521874950        4.2685743758       -0.7992961059
 H         -4.1878804669        3.8776850498       -2.2190632621
 O          0.4759198439       -3.1873110454        4.0990240442
 H          0.7510528439       -2.5291214215        3.4371658109
 H          0.2236154818       -3.9948216125        3.6213328408
 O         -2.9687051663        4.0188640238        3.3348250587
 H         -3.9008875479        3.8456772310        3.1178955763
 H         -2.4553747149        3.7653277232        2.5522245778
 O         -3.5573449630       -3.4464049834       -3.1661874459
 H         -4.1987591460       -3.2304651971       -3.8693681411
 H         -3.2865231909       -2.5944870735       -2.7764970167
 O          4.7321113135        3.8841065777       -1.5458439980
 H          5.4041873317        4.4201692180       -1.0764725306
 H          4.9057251341        4.0366234119       -2.4958901553
 O         -5.6152619153        3.3134237268        3.1383665598
 H         -6.0032577437        2.5192129618        2.7195796711
 H         -5.7406633627        3.1891224768        4.1002515049
 O          4.6027034303        4.2179422872        1.2415487597
 H          3.9779094133        3.8187164491        0.6161658307
 H          4.2210765233        5.0453092454        1.5983527312
 O          1.5092010918        0.4584451066       -5.4393950613
 H          2.4052764528        0.5930325401       -5.7903844379
 H          1.5520599471       -0.4003237308       -4.9774049737
 O         -3.6639430845        1.1099154187        3.6551368964
 H         -3.4753915383        1.7591723410        4.3703734793
 H         -3.8001409096        1.6060365636        2.8284326043
 O         -6.4323164545       -0.2261074370       -0.0583116529
 H         -7.2211189299       -0.4809346054       -0.5707191075
 H         -5.8960265304        0.3403187286       -0.6597754560
 O         -5.1132906177       -2.4616113810       -0.4405859852
 H         -4.1562163968       -2.2979643782       -0.5560666703
 H         -5.5450607962       -1.6090560668       -0.2094120257
 O          6.3510073389       -3.7713798889        2.9636308798
 H          6.3931070962       -3.2356236902        2.1485285370
 H          6.2367379296       -4.7164315962        2.7080494159
 O          3.6270743431        2.2722433868       -4.5798485021
 H          2.8981148564        2.6735081977       -5.0810955067
 H          3.2412551959        1.7557591630       -3.8486163045
 O          5.5576256392        0.3762646509       -4.2531415513
 H          6.4026416978        0.1440761639       -4.6709488469
 H          5.1897397765       -0.4672126649       -3.9225974809
 O          0.2153781013       -5.2202952183       -2.8760007777
 H          1.0340826209       -5.0541158144       -2.3354751776
 H         -0.2890022086       -4.3483237126       -2.7425768667
 O         -6.0735529970        0.3733778948        4.4776443226
 H         -5.1422089238        0.4964287120        4.1799195474
 H         -6.6027140474        0.5114119800        3.6709350045
 O         -1.6973145781       -2.8392232230        2.1082830864
 H         -0.8492110264       -3.2610003794        1.8735820071
 H         -2.2894466929       -3.5030485395        2.5024116585
 O          2.2836658229       -5.3218640232        2.6519414064
 H          2.9528185256       -4.6928807691        2.9629170489
 H          1.9966684898       -5.8164543745        3.4517201490
 O          2.2539776127       -4.7635389567       -1.3823457189
 H          2.2891287191       -5.5315012532       -0.7730640728
 H          3.0387119143       -4.7793859110       -1.9785120499
 O         -1.5999108108        5.5126592713       -3.1288629749
 H         -0.6863383647        5.6839554115       -2.8182847789
 H         -2.0023222580        4.8550708173       -2.5263629877
 O         -5.9965940790        2.7093955751        5.7391720270
 H         -5.0674008259        2.7359884514        6.0209572536
 H         -6.1478669643        1.7779499506        5.4669640387
 O         -2.0262150418       -3.5048810909       -5.4833578169
 H         -2.3671608520       -3.5310203799       -4.5714605503
 H         -1.1337908695       -3.8754167747       -5.4731450062
 O         -3.7015820922       -2.1388483865        3.9767121661
 H         -3.8144741451       -1.6875404472        3.1227309337
 H         -4.5571761440       -2.1206813926        4.4267787867
 O          2.1787352757       -6.7856256095        0.3555051412
 H          2.1768611850       -6.4160188758        1.2542599552
 H          1.3420790753       -7.2331274284        0.1795788996
 O         -8.2646279646       -0.8725118023       -1.9489131656
 H         -7.5437356118       -0.7980919377       -2.5979623861
 H         -8.7516936612       -0.0380055814       -1.9574884387
 O         -3.3818845115       -4.8152696352        3.1243013580
 H         -3.7078588291       -4.7174821964        4.0356201262
 H         -4.1201704662       -4.4882950025        2.5453165237
 O          6.0299045481       -3.4312400681       -1.1199860683
 H          5.8034163594       -4.2912221970       -0.7277798376
 H          5.7020702024       -2.7846869567       -0.4788349106
 O         -0.8961580357       -1.1102617205       -5.3323763501
 H         -1.4556164164       -1.9065611511       -5.4231503504
 H         -0.1298703669       -1.2632370226       -5.8950970526
 O         -8.4532411662       -2.0548950127        0.8166380753
 H         -8.4699949094       -2.5984992434        0.0040027131
 H         -9.0618438785       -2.4832350164        1.4535152210
 O          4.9018379366       -1.9956942976       -3.2634050089
 H          4.5666887253       -1.6540677700       -2.4059936792
 H          5.8719321283       -2.0327207458       -3.1328546979
 O          7.5006028613       -1.4798961143       -2.7527637527
 H          7.8515042206       -2.3846608678       -2.8007470677
 H          7.4452134678       -1.2221773552       -1.8118857636
 O          7.1291321042       -0.2707404924       -0.3748538377
 H          7.7657923059        0.2276700526        0.1687252887
 H          6.6508471587        0.4079303378       -0.8970929461
 O          3.9598458978       -1.5283212902        5.6036762801
 H          3.1205560584       -1.0306478724        5.4714441796
 H          4.6245139043       -0.8280473651        5.6942060469
 O          7.1566565071       -0.7823826062        3.3001719325
 H          7.4816705877       -0.9761865283        4.2034231063
 H          6.1842206554       -0.8361420591        3.3104106734
 O         -5.3786300861       -4.0149277853        1.6543542133
 H         -5.8315668093       -3.3857785121        2.2509629808
 H         -5.1612941674       -3.4897118569        0.8494376725
 O         -6.5308427452       -1.7791425118        2.5892438079
 H         -7.1108010440       -1.7289107788        3.3653148969
 H         -7.1400194575       -1.8213424428        1.8259711323
 O          2.1150268934        4.2097283805        3.9076684516
 H          1.2479271423        4.6709929255        3.8674621014
 H          2.0672986521        3.6149949299        4.6717785248
 O          5.6319786227        0.7048006779        5.5145631702
 H          6.3807824283        1.0849366973        5.0392764880
 H          5.1518485343        1.4872769818        5.8679911531
 O          8.8551870022       -2.4122827547        2.0897172845
 H          8.1067366452       -1.8626792709        2.3896162178
 H          8.7156895890       -2.5771391934        1.1349990470
 O         -3.7723539448        4.7265742501        0.7787700207
 H         -4.2544873403        5.5599709901        0.8666140671
 H         -2.8296787371        4.9928172074        0.8019798287
 O         -6.0781668959        3.4095663565        0.1719958562
 H         -6.7277997401        3.1620007759        0.8388225757
 H         -6.3813594241        2.9335067028       -0.6371282359
 O         -1.4492009564        5.8817460180        0.3657252644
 H         -0.8727522595        5.2861880507       -0.1451008432
 H         -1.9506235956        6.3956386196       -0.2939684959
 O         -0.7993667251        3.3042813681        5.1736492628
 H         -0.6822698196        2.6906782312        4.4116986947
 H         -0.7856663537        4.1807494807        4.7515114070
 O         -8.8094379206        3.0843117790        1.2139751555
 H         -8.7928001941        3.5468657616        0.3490061080
 H         -8.5931215800        3.7782317122        1.8686354788
 O         -9.7212285001       -2.4837617400       -3.5844922595
 H         -9.2591097504       -1.9677708371       -2.8921344983
 H         -9.5589917051       -3.4085140710       -3.3884007288
 O          6.8690684205        2.7265009212        0.9084022295
 H          7.7385099745        3.0896798287        0.6205702110
 H          6.2500917487        3.4719909584        0.9448700427
 O         -6.3915599431       -3.3596260198       -2.4785631400
 H         -6.2940212543       -2.5792724562       -3.0634150178
 H         -5.8606002310       -3.0967814900       -1.6809705455
 O          4.6062675891       -5.2825443988        0.1980763549
 H          3.9433945537       -4.5687301542        0.1920426155
 H          4.3602646648       -5.9495480009       -0.4612693706
 O          7.3130375943        1.8539618550        3.3738423448
 H          7.3192805971        2.2479996078        2.4704744087
 H          7.3510755788        0.8877754544        3.2038839930
 O         -5.8484831673       -1.9770502332        5.7333055434
 H         -5.1753474508       -1.8101537847        6.4230193740
 H         -6.0334419703       -1.1032261131        5.3315547773
 O          4.0598399040       -2.5623164557       -6.0919685343
 H          4.9830318452       -2.5984551399       -5.7815888957
 H          3.7797714325       -3.4991940749       -6.1023066449
 O         -2.2857794855        0.6710148663        7.3240628720
 H         -1.7379282815        0.2298001535        6.6341387631
 H         -1.6149431498        1.0120577326        7.9311215743
 O         -3.6962439669       -1.6921173009        7.3018293358
 H         -3.3377410116       -0.8005212655        7.4471366830
 H         -2.9815859397       -2.2040623089        6.9068981626
 O         -7.6421637250        4.9925146605        2.6919572698
 H         -6.7878265772        4.5319477092        2.8500162909
 H         -7.4724701170        5.6120687481        1.9650658509
 O          1.5852004559        6.4828072849        0.8310203621
 H          0.9222111301        7.1263206093        0.5374840266
 H          2.2092020977        6.4030558444        0.0832241380
 O         -3.4167042974       -5.1441110822       -0.4805269571
 H         -2.4989445905       -5.4205381303       -0.6588731635
 H         -3.9604176052       -5.3428720297       -1.2768575756
 O          7.7991003072        3.5612396191       -2.0847416219
 H          7.1814235793        2.8212404575       -1.9002696875
 H          8.6686005943        3.2495747701       -1.7835447201
 O          9.0572134251        0.9853599862        0.9344139626
 H          9.6199742205        0.2614802842        0.5883519314
 H          9.4476547685        1.2540978289        1.7868732404
 O          7.9954301728       -1.2795699659        5.7706103223
 H          7.4695973750       -2.1090009928        5.8613488406
 H          7.5781274952       -0.6302764690        6.3408399873
 O         -0.7593208498       -5.4716528498        3.2329890224
 H         -0.6746009226       -6.2148441703        2.6193280277
 H         -1.7144549240       -5.2996569560        3.2854473747
 O         -1.8310542087       -3.1003809766        5.5607565119
 H         -2.4747837049       -2.7506116244        4.8965853052
 H         -1.0352785317       -3.3284912778        5.0523639678
 O         -2.4003740137       -5.8808934159       -3.5377919963
 H         -1.4532590929       -5.7209470095       -3.4769729905
 H         -2.8466866887       -5.0436541527       -3.2983478705
 O          2.3474582163       -3.8817055864        5.8909478996
 H          1.6827448159       -3.5597220632        5.2457396340
 H          2.8726555043       -3.1152133651        6.1396038823
 O         -9.4587692276        0.8263663016        3.8801587492
 H         -9.1342309014        1.7052328021        4.1602646815
 H         -9.3738348049        0.7745808339        2.9049590454
 O         10.2013081517       -0.9867153911       -0.3118009293
 H          9.4941017000       -1.6595878376       -0.3697484639
 H         10.8856197474       -1.3463320752        0.2949527431
 O         -3.9603934718       -0.2284124314       -4.7817430486
 H         -3.7530497970       -0.6501714344       -5.6429526128
 H         -3.5430037531        0.6584494913       -4.8087780361
 O          2.7314128942        5.3500536137       -4.4057165434
 H          3.6927539736        5.3204441335       -4.4485921246
 H          2.4132779082        4.8206843489       -5.1566321606
 O         -9.8122483301        1.3341807309       -1.1447160363
 H        -10.3379090346        2.1622590286       -1.2424348682
 H         -9.7824603613        1.0992179600       -0.1876138757
 O         -7.2499400373        1.9263253137       -1.5975438551
 H         -7.2497882593        1.8172466515       -2.5707411062
 H         -8.1835154067        1.8872359030       -1.3387569697
 O         -6.7255592888        6.0072359069        0.2975189615
 H         -6.0395039923        6.6102442933        0.6269830829
 H         -6.3301446688        5.1031670781        0.2557659495
 O          0.7272484687       -4.0719196940       -5.2234931197
 H          1.0844892191       -3.2090641518       -4.9001997465
 H          0.5232843797       -4.5758738503       -4.4118455650
 O         -8.5451799489        3.2202496128        4.6525907342
 H         -7.7766536802        3.1661777585        5.2316252694
 H         -8.4191788303        3.9927774315        4.0883156435
 O          9.1489907569        0.4364197914       -3.6730574060
 H          9.4092883081        0.9881868415       -2.9046592696
 H          8.5100208213       -0.2169666502       -3.3155635905
 O          4.3791286931       -5.3517824661        4.7527309577
 H          5.1364210091       -5.1146819320        5.2935583898
 H          3.6034751047       -4.9606970803        5.1916483089
 O         -0.2574199723        5.2291593136        3.3986214426
 H         -0.3926988648        4.7691331649        2.5604687576
 H         -0.3886497152        6.1857961909        3.1853362694
 O          3.1277590527        6.0008832978       -1.2676299209
 H          3.7983542456        6.5290340894       -1.7445104720
 H          3.4797418309        5.0874200807       -1.3138767746
 O         -7.4870693959        1.3557963183       -4.1663639177
 H         -8.4009975514        1.1029062812       -4.3539855275
 H         -6.9656948047        0.5355801743       -4.2010913771
 O         -8.7193556404        4.6432668039       -0.9600910526
 H         -8.2858535463        5.4095589575       -0.5677887972
 H         -8.2437275122        4.4821104424       -1.8151765042
 O        -11.5405993904        2.5926027785        1.1263371588
 H        -11.8763335626        2.1974417634        1.9548450893
 H        -10.5817675152        2.6928481576        1.2648648914
 O          0.8887613615        6.3528322272       -2.6608636900
 H          1.6477469249        6.1390541998       -2.0719812431
 H          1.2852090327        6.3295445710       -3.5396580156
 O          3.4978182636        6.1528263907        2.7041350167
 H          2.8206398760        6.5620957279        2.1369435468
 H          3.0104832178        5.5034796691        3.2452331932
 O         -9.5979732024        0.2791931087        1.2528775773
 H         -9.0102594538       -0.4731273429        1.0289123823
 H        -10.4830569289       -0.1436234966        1.3340292313
 O         -7.4702317117        4.3449428523       -3.2722867220
 H         -6.7615432288        3.6713140444       -3.2744354003
 H         -8.2361938989        3.9378122232       -3.7140903715
 O        -10.1014683516       -2.8269217677        2.7752639054
 H         -9.6117728361       -2.3856423655        3.4951122847
 H        -10.8779313646       -2.2915172097        2.5723671615
 O          4.0310635433        0.2405145197       -6.4515649863
 H          4.4623239706        0.5098834863       -5.6079662903
 H          4.1170579018       -0.7194290540       -6.5009347813
 O          6.6644302876        5.4759430510       -0.5995033145
 H          7.3275105253        4.9100247721       -1.0439965211
 H          6.9213520917        5.5502619358        0.3323983307
 O         -5.4575054692        6.0537786023       -2.2010398910
 H         -5.9882295340        6.1851770576       -1.4015705154
 H         -6.0641985459        5.6559495004       -2.8355322263
 O         -3.5849496658        4.4704994073       -4.8796665714
 H         -4.3929515347        4.2075439122       -4.4232363183
 H         -3.1437523475        5.1061454886       -4.3056422192
 O          4.3455528025        2.9971816469        5.9467254264
 H          3.4236278681        2.8942976831        6.2109684269
 H          4.3438045995        3.0290437575        4.9654196463
 O          8.5188597048       -3.0282035593       -0.4507450576
 H          7.6011928485       -3.2599989976       -0.7382318566
 H          9.1352923834       -3.5485565625       -1.0005956489
 O          9.8127180896        1.8951980871       -1.5133803806
 H          9.4197804281        1.6867681213       -0.6448085653
 H         10.7696501604        1.8804569978       -1.3470328363
 O         11.0720581266       -1.4122917828       -2.7631216546
 H         10.6097834037       -0.8316292702       -3.3843586640
 H         10.7263038748       -1.1435555685       -1.8800348803
 O          7.4708943094        5.6052370081        2.0438547930
 H          6.8869162197        5.3254745804        2.7754767786
 H          7.6718331914        6.5232179980        2.2189544814
 O         -8.4809176910       -1.5164494119        4.5043393778
 H         -8.2412612481       -1.6241804800        5.4244570690
 H         -8.8111929612       -0.5925253269        4.3825859017
 O        -10.0516736772        0.3581245835       -4.4270618595
 H        -10.0550082078       -0.3062125022       -5.1161414952
 H        -10.6757319527        0.0398117676       -3.7408502533
 O         -8.6366488944       -3.8356709729       -1.1613280985
 H         -7.8659956997       -3.6103491895       -1.7269959420
 H         -8.2945975207       -4.5202747451       -0.5414277989
 O          6.2561904178       -3.2731853187        5.6098755374
 H          6.3753378854       -3.4630346789        4.6578178321
 H          5.4200785623       -2.7979406674        5.6947321961
 O          1.5999578630        2.4125944190        5.9362287313
 H          1.6643225287        1.5413294534        5.4974920721
 H          0.6868979004        2.7454119309        5.7806767861
 O         -5.4001143687        2.0746702201       -5.9078874651
 H         -5.7816670493        1.1941665511       -6.1197767151
 H         -6.0202052372        2.7147490975       -6.2555412327
 O          7.9839232413       -4.0764041795       -3.4550202452
 H          7.4377268795       -4.7875438082       -3.0917068982
 H          7.5181295279       -3.7540018548       -4.2455626793
 O        -11.8209510607       -1.1727840083        1.2929995747
 H        -12.4396128960       -0.5457416078        0.8346486966
 H        -11.5767362294       -1.8047247344        0.5946523470
 O        -11.5382482610       -0.3297627601       -2.2651785930
 H        -11.3749660568       -1.2271396826       -1.9344609474
 H        -10.8855467365        0.2487321325       -1.8120328034
 O         -7.4438363357       -5.3785058419        0.6251476072
 H         -6.6556627179       -4.9003892974        0.9692528548
 H         -8.0189583324       -5.4801198070        1.4181767907
 O          6.3706778753       -6.0705332480       -2.3656420899
 H          6.8207365076       -6.0007272661       -1.5015404087
 H          5.7448083139       -6.7980994762       -2.2665998828
 O          7.3916424038       -5.8684258332        0.1186452703
 H          8.1020401744       -5.5171386687        0.6819264939
 H          6.7993629254       -6.3239763087        0.7224050563
 O          5.6182451616       -6.2463384017        2.4492984595
 H          5.0480840151       -6.2441648633        3.2311475781
 H          5.0546213909       -5.9940685022        1.6896106091
 O          5.2888168187        4.2199725768       -4.1586222532
 H          6.1639279817        3.9166035641       -4.4203641976
 H          4.6876679233        3.4494580351       -4.3526751543
 O          3.2067818642       -5.0878653737       -5.5119066911
 H          3.5955521052       -4.8960485113       -4.6304418923
 H          2.2795734755       -4.7753401143       -5.4916904790
 O         -5.1089431129       -5.8031138196       -2.3944264735
 H         -5.5313516426       -6.4371128176       -1.7741670677
 H         -5.6302949681       -4.9833456848       -2.3922962774
 O        -11.1570361659        3.6023747919       -1.3742474874
 H        -11.6073072383        3.5210252946       -0.5212539646
 H        -10.3975270260        4.1965319144       -1.2282130698
 O         10.0895848240        1.4833476851        3.3620244108
 H         10.2609900633        0.5608462787        3.6474472335
 H          9.2344253656        1.7546537593        3.7253440271
 O          6.7081984713       -2.8683823518       -5.5501204270
 H          6.9761225645       -3.3072244687       -6.3559714252
 H          7.0892406171       -1.9617843394       -5.5946213931
 O          3.9512880546       -7.2465926462       -1.6692627999
 H          3.4190780314       -7.6375277092       -0.9684842534
 H          3.3634869443       -7.1900775297       -2.4488178452
 O         10.3444795728       -1.1388693573        3.9435491880
 H          9.7955451761       -1.2787443529        4.7224417003
 H          9.8961785457       -1.6171174016        3.2197813612
 O         -9.8819185463        3.1868403609       -3.9410474341
 H        -10.5031572592        3.3819877017       -3.2320549373
 H        -10.0533533666        2.2758150258       -4.2084647338
 O          7.7319263262        2.7194556525       -4.6050796675
 H          8.2565319427        1.9168772024       -4.4616072010
 H          7.8258461341        3.1977796722       -3.7550469183
 O          7.6751983004       -0.4354116889       -5.8466483281
 H          8.4534141074       -0.1207405738       -5.3728407251
 H          7.3478679984        0.3090256866       -6.4104618662
 O          9.1161559795        4.0102857643        0.4435663385
 H          9.9816277309        3.6831250558        0.7713033065
 H          8.8389525299        4.6876508441        1.0707129470
 O         10.3620512381       -3.9775469384       -2.1340502055
 H         10.7375472487       -3.1346849320       -2.4565284809
 H          9.6875660241       -4.2261213118       -2.7839682671
 O         -0.7656635846        1.4375005719       -6.6404580163
 H          0.0477325937        1.0607226739       -6.2664889769
 H         -1.3570761585        1.5357103058       -5.8700833031
 O         11.3991714981        3.0897718058        1.4766955615
 H         11.1331082977        2.5493724324        2.2330410110
 H         11.7908369034        2.4933440213        0.8193863882
 O         -6.5988289415       -4.2221997202        4.2641776595
 H         -6.0002698151       -4.8633744184        4.6514398790
 H         -6.5058106436       -3.4094784791        4.7826569411
 O         -3.6190882764       -1.1631759612       -7.2322127141
 H         -2.7247345907       -1.4403375892       -7.4990032222
 H         -3.6431077467       -0.2322431435       -7.5604157203
 O         -3.4317606616        1.4468792167       -7.7111857485
 H         -2.5095627572        1.6162469624       -7.4910758172
 H         -3.9829968684        1.8357684642       -7.0120858186
 O         11.2661877082       -4.4259551768        0.5321023591
 H         10.5100708283       -4.7696539333        1.0275425933
 H         11.0231622627       -4.4209660251       -0.4042205904
 O          9.0279113042       -5.0475719879        2.1314884758
 H          8.6818012292       -5.4878593464        2.9070348407
 H          8.9188264899       -4.0805713545        2.2792991395
 O          0.3577031962        1.0205492252        8.0215905039
 H          0.8719747161        1.6357362365        7.4756827289
 H          0.6337441845        0.1390879663        7.7655815685
 O         -2.9746426776        7.1747848678       -1.4976208693
 H         -3.8771991534        6.8685571833       -1.6830186966
 H         -2.4590164853        6.7996448167       -2.2360319278
 O          2.1649052050       -7.0463120832       -3.7177148492
 H          2.6124280257       -6.6335459195       -4.4725048580
 H          1.3744211136       -6.5141724084       -3.5583812546
 O         -4.9999923513       -2.9797808955       -5.4116953661
 H         -4.9542096940       -3.9442501893       -5.5264381833
 H         -4.4189184996       -2.5982249761       -6.0794814225
 O         -4.7412550347       -5.6719480403       -5.0963838360
 H         -3.7974367650       -5.7722603795       -5.2495767181
 H         -4.8432383570       -5.8404229337       -4.1398206112
 O         12.0235166518       -2.0191405402        1.2832926545
 H         11.8795981875       -1.8774291184        2.2217779538
 H         11.8213844179       -2.9676236073        1.0880076719
 O         12.3796369684        1.6399707381       -0.6811196143
 H         13.0627559406        2.1843292896       -1.0697716556
 H         12.6953391206        0.7019589792       -0.7584865802
 O         -7.9568504022       -2.2017284539       -5.5752495141
 H         -8.7280300143       -2.2158011722       -4.9707675309
 H         -7.6372713775       -3.1245209410       -5.5494773150
 O         -3.3514393029        6.6469496878        3.3372664504
 H         -3.0849041341        5.6958145426        3.2684908037
 H         -3.9250310010        6.6438655036        4.1123024785
 O         -3.6905816688       -6.9589995267        1.4019480495
 H         -3.6583667500       -6.2511979792        0.7087080733
 H         -3.7635492224       -6.4646585506        2.2299125039
 O         -6.3456421474       -0.2824060824       -6.7423719265
 H         -7.0119244936       -0.9433686688       -6.5111978911
 H         -5.5719993146       -0.7674260445       -7.0492120627
 O         -8.7565970270       -5.2481643072        2.9020914443
 H         -8.0187200196       -4.9182771098        3.4432494442
 H         -9.3936104814       -4.5228419834        2.8634570427
 O         13.2238408663       -0.8302622490       -1.0025421906
 H         12.9902902290       -1.3308014644       -0.2082075215
 H         12.6797175965       -1.1743017919       -1.7272221930
 O        -13.0651967605        0.6169530837       -0.1454714424
 H        -12.7404723143        0.4098648075       -1.0379016385
 H        -12.6098192697        1.4214273659        0.1535262300
 O          1.2422579569       -6.3278522577        4.8760056093
 H          1.4935518157       -5.6784176713        5.5403946968
 H          0.3489734353       -6.1040369161        4.5724301269
 O        -12.1109480281        1.0683538483        3.2850848846
 H        -11.2279004663        0.9843670241        3.6900569047
 H        -12.3159376482        0.2169332620        2.8904517183
 O          5.3220824284        6.7505361519       -2.6111201877
 H          5.4587390052        6.0763806279       -3.2859141030
 H          5.9122337318        6.5086948277       -1.8784416941
 O         -4.1231185596       -4.5969526163        5.7643366073
 H         -3.2121738423       -4.3414348532        5.9726483411
 H         -4.6700482955       -3.8789831396        6.0987068262
 O          1.2881382942       -2.0281724464       -7.1203118841
 H          1.0055354440       -2.9306185624       -6.9452099937
 H          2.2297874783       -1.9988026154       -6.9209399723
 O         -0.9319941037        7.5724060076        2.4880205404
 H         -0.9925068612        7.1929626518        1.5958608303
 H         -1.8207032397        7.4902522043        2.8676259851
 O          5.7680115302        5.3232451042        4.0938800083
 H          4.9993339603        5.7644633263        3.7043444415
 H          5.4531733699        4.7949163187        4.8312189734
 O         -4.6610446719        5.3311299615        5.3481500407
 H         -3.9764479103        4.6559616152        5.2751889354
 H         -5.4503204345        4.8818951304        5.6534521603
 O          0.1902133298       -7.9082963574       -1.1899089085
 H          0.6501854638       -7.9770426089       -2.0281086805
 H         -0.7642475832       -7.9002127543       -1.3865730087
 O         -1.0897922181       -7.4117318857        1.3415431327
 H         -2.0822982425       -7.3786944701        1.3662471873
 H         -0.8504687081       -8.1761104720        0.8161481934
 O         -4.5243695983        7.3251431203        1.0766559096
 H         -3.8832813566        7.7043584036        0.4701854185
 H         -4.0892863528        7.2128535497        1.9552620846
 O          6.5668974064        1.6953740971       -6.8933267283
 H          6.8351573131        2.2554099470       -6.1474670083
 H          5.6127191611        1.5726586906       -6.8363313691
 O          1.7967935516        3.5331387900       -6.1605937328
 H          0.8524413877        3.7339257002       -6.0975897934
 H          1.9173430324        2.9639952963       -6.9480460220
 O         -0.0882828092        8.0439886965       -0.7496174279
 H          0.2673672951        7.5871008756       -1.5301367236
 H         -1.0155996268        8.2049997168       -0.9312062169
 O          2.1845922475        1.6428467288       -8.0046326390
 H          2.9254932224        1.1335148208       -7.6460096502
 H          1.4099653576        1.0760527130       -7.9774249825
 O         -7.4006004852       -4.6922294171       -4.7043078044
 H         -6.6623439926       -5.1904544914       -5.0670474643
 H         -7.0723671013       -4.3287301430       -3.8706587137
 O        -11.0979043819       -2.7311126737       -0.8831312357
 H        -11.7294072758       -3.4012955676       -1.1423204544
 H        -10.2092621896       -3.1210077239       -1.0080869458
 O         -5.8962594564       -7.3325681397       -0.3778726080
 H         -6.5867495094       -6.7445784275       -0.0116823726
 H         -5.2269938751       -7.3990914775        0.3171155035
 O         -2.4724181953       -7.5888698515       -1.5212632522
 H         -3.3526507306       -7.8869628060       -1.2913396408
 H         -2.5697143606       -7.0392587412       -2.3329380507
 O         -1.0851064875       -0.9020383040       -8.1180359796
 H         -0.2284108406       -1.3175846946       -7.9808969351
 H         -1.0440137177       -0.0398076293       -7.6673264465
