  132

 H         -0.5425054108       -1.1597996588        0.9180873613
 C         -0.6112510051       -0.5412956738        0.0100749178
 H         -0.5391308396       -1.1969144463       -0.8712436600
 C          0.5103658648        0.5037878336       -0.0094871833
 H          0.3911098457        1.1518924075        0.8600966302
 H          0.3944399222        1.1152669957       -0.9056411620
 O         -1.7891825170        0.2100258090       -0.0077307039
 H         -2.5646581753       -0.3620747640        0.0026734605
 N          1.8637421186       -0.1172780949        0.0059475203
 H          1.9871272142       -0.7237037735       -0.8163106218
 H          1.9839787972       -0.6890763203        0.8531041603
 H          2.5930828888        0.6072400316       -0.0077051384
 O          3.7213327036        1.8794658138        0.2939536447
 H          4.5374478387        1.5968532194        0.7771080515
 H          3.2229063875        2.4173137352        0.9225631172
 O          1.9744752573       -2.1975799052        1.7319634925
 H          1.3335795655       -2.4385244349        2.4116025825
 H          1.7733444537       -2.7924095155        0.9806568232
 O         -0.4665559537        0.1815492868        3.6390573166
 H         -0.9219774603       -0.6014996307        3.2906770214
 H         -0.9307542021        0.9411678103        3.2514157359
 O         -1.9090048036       -1.9722447813        2.5958822341
 H         -2.8399429976       -1.7944585392        2.8167164590
 H         -1.5799778763       -2.6483548842        3.1968753029
 O          1.7838120288       -1.7031200188       -2.1861334961
 H          1.3351147436       -1.1181642976       -2.8408351821
 H          2.6128655944       -1.9903100371       -2.5955846000
 O          2.3951491429        1.7293918122       -2.7315653933
 H          3.0563084039        1.0730342349       -2.4193871017
 H          2.9373938744        2.5100677878       -2.9198003993
 O          1.1518414230       -3.6473280398       -0.4013063751
 H          1.1984248361       -3.0245398562       -1.1469360328
 H          0.2037770642       -3.7477494698       -0.1941985609
 O          4.4036787459        0.1442308994       -1.9449078576
 H          5.1493640669        0.7748788285       -1.8754521679
 H          4.3504972879       -0.2656608082       -1.0580299061
 O         -1.8113192675        1.9714623042        2.0548137444
 H         -1.8349655547        1.3233566514        1.3204709108
 H         -1.5555990438        2.8158011115        1.6288061579
 O         -1.4474694404       -3.6753000397        0.4387336847
 H         -1.7116328824       -2.9831876659        1.0682682392
 H         -2.1507641473       -3.6910873682       -0.2350936124
 O          4.3684702687       -1.2245221238        0.3294764649
 H          4.1911970388       -2.1675764703        0.1510303807
 H          4.3047270895       -1.0936615846        1.2988120672
 O         -4.0825863325       -1.0324796422        0.0787091910
 H         -4.1426234097       -1.3679154321        0.9878642140
 H         -4.5776752033       -0.1810483676        0.1060712210
 O         -5.0467209139        1.4153614062        0.3897192592
 H         -4.3244453754        1.9542561363       -0.0095664417
 H         -4.9847852205        1.5515753228        1.3472832009
 O         -3.0750085998        2.5917382945       -0.9349326573
 H         -3.5352510832        2.5147850981       -1.7961409135
 H         -2.3983518528        1.8957418406       -0.9500152843
 O         -1.1344844839        4.0008598484        0.4270190380
 H         -1.9207425540        3.8371056697       -0.1148985292
 H         -0.3828120409        3.9295243366       -0.1765241919
 O          0.6358703643       -0.0112790013       -3.8644648171
 H         -0.1473553224        0.4449402732       -3.4813308645
 H          1.3422564466        0.6497902292       -3.7755800614
 O          1.9840885938        0.6588139532        2.7182496147
 H          1.1523176119        0.4128723157        3.1761956137
 H          1.9439041767        1.6130157187        2.5770655340
 O         -3.2951628601       -0.8891075722       -2.5768020262
 H         -2.6369845145       -1.5391853862       -2.8861867761
 H         -3.5154649356       -1.1586605430       -1.6685032206
 O         -1.4932165796        1.1599316790       -2.7889602647
 H         -1.9344820382        1.7665217170       -3.3881457834
 H         -2.1158979730        0.4178233601       -2.6489382599
 O         -4.3551664198        1.7480756673       -3.1546316170
 H         -5.3023546017        1.8107537883       -2.9782647905
 H         -4.1517064376        0.8035734241       -3.1303866510
 O          4.1478870306        3.5837359921       -1.8310466823
 H          5.0678234879        3.5333951232       -2.0962202191
 H          4.0630127750        2.9955900669       -1.0543973731
 O          1.3029733111        3.5722751141       -0.9977040690
 H          1.9318683794        4.2691006340       -1.2063687380
 H          1.5642515781        2.8293435459       -1.5775283661
 O          6.5095178622        1.7113587231       -1.3152364498
 H          6.9968914157        0.9068870131       -1.0766393407
 H          6.4388938024        2.2064451720       -0.4935705026
 O         -6.6942649071        1.0854105013       -1.7671279491
 H         -6.1235356757        1.2659103871       -0.9993905983
 H         -7.5600721465        0.9120350501       -1.3621913974
 O          5.8847610647        1.1861519575        1.6432975741
 H          6.4573270465        0.5668550460        1.1552705585
 H          5.4945591294        0.6645203005        2.3572593556
 O          4.2475804971       -0.6632293517        2.9543986647
 H          3.4038153684       -0.1521553061        2.9333686181
 H          4.0707579491       -1.4287314781        3.5014682636
 O         -1.1018036652       -2.2510744966       -3.4242135965
 H         -0.4994327816       -1.5774087150       -3.7684638001
 H         -1.0539596301       -3.0003370571       -4.0176314440
 O         -6.8844586941       -1.5240686227        1.5411637831
 H         -6.5536039968       -2.0013461903        0.7409877985
 H         -7.5479107823       -2.0881057381        1.9398160040
 O         -4.2415336747        1.5617621103        3.0069686596
 H         -3.3189461831        1.7739244128        2.7159419855
 H         -4.4037994400        2.0689068335        3.8021026008
 O         -4.4838486259       -1.1715394931        2.8014598554
 H         -4.4070219392       -0.2157691857        2.9772492888
 H         -5.4119483006       -1.3148340198        2.5463951076
 O          7.0008608932       -0.6701143832       -0.0457818443
 H          7.5470754195       -1.4374666994        0.1418758868
 H          6.0834304716       -1.0144976299        0.0153984568
 O          1.7050429741        3.2431308493        1.6764350881
 H          1.4581115682        3.3776996937        0.7387800154
 H          1.2767542454        3.9441234723        2.1690146117
 O         -6.1481887896       -2.9014959966       -0.6225730364
 H         -6.8219616156       -3.5485044875       -0.8319932077
 H         -6.1415938247       -2.2629472163       -1.4018283130
 O          3.9693717629       -3.7353856960       -0.6005910641
 H          3.0361852993       -3.9768403520       -0.5312661048
 H          4.1110836385       -3.4255498399       -1.5104093515
 O         -6.0507119652       -1.3475581296       -2.6796994020
 H         -6.3572240849       -0.4497774874       -2.4176296292
 H         -5.1113059191       -1.2598338728       -2.8972844740
 O          4.3387081490       -2.3158023601       -2.9747657467
 H          4.9515152899       -2.5263097284       -3.6783627344
 H          4.5273596572       -1.3915068441       -2.6944577987
 O          0.0655600206       -3.9424718430        2.8282793084
 H         -0.3738978127       -4.1492697388        1.9911989865
 H          0.6861682565       -4.6521368150        2.9920562217
 O          6.4494936295       -3.3061717808        0.6996218961
 H          6.3472068617       -3.5983579995        1.6051638172
 H          5.7121389697       -3.6853510600        0.2040468399
 O         -3.5339960386       -3.5306356352       -1.3042185856
 H         -3.7191983856       -4.2620796305       -1.8928058991
 H         -4.3844274578       -3.2637693078       -0.9084501184
 O         -8.4029973367        0.4096080965        0.2258875276
 H         -7.8277277724       -0.1984348913        0.7222676077
 H         -8.6013316972        1.1403474288        0.8121748284
