19

H 0.044060000 3.365688000 0.532710000
C 0.000000000 2.450530000 -0.065847000
H -0.837580000 2.535228000 -0.770003000
C -0.192973000 1.264571000 0.868591000
H -1.181892000 1.244042000 1.325383000
H 0.571697000 1.265630000 1.645816000
C 0.192973000 -1.264571000 0.868591000
H -0.571697000 -1.265630000 1.645816000
H 1.181892000 -1.244042000 1.325383000
C 0.000000000 -2.450530000 -0.065847000
H -0.044060000 -3.365688000 0.532710000
H 0.837580000 -2.535228000 -0.770003000
O -1.224662000 -2.181636000 -0.739959000
H -1.445998000 -2.897974000 -1.344054000
O 1.224662000 2.181636000 -0.739959000
H 1.445998000 2.897974000 -1.344054000
N 0.000000000 0.000000000 0.073164000
H 0.804758000 0.182987000 -0.542720000
H -0.804758000 -0.182987000 -0.542720000
