  282

 H         -0.5425054112       -1.1597996585        0.9180873603
 C         -0.6112510051       -0.5412956740        0.0100749183
 H         -0.5391308395       -1.1969144470       -0.8712436601
 C          0.5103658647        0.5037878336       -0.0094871839
 H          0.3911098457        1.1518924073        0.8600966290
 H          0.3944399221        1.1152669956       -0.9056411629
 O         -1.7891825170        0.2100258093       -0.0077307040
 H         -2.5646581753       -0.3620747641        0.0026734602
 N          1.8637421187       -0.1172780949        0.0059475209
 H          1.9871272141       -0.7237037740       -0.8163106224
 H          1.9839787968       -0.6890763206        0.8531041602
 H          2.5930828886        0.6072400317       -0.0077051379
 O          4.1415644440       -1.1296221703        1.0088249126
 H          4.1382422213       -1.9798461309        0.5386006786
 H          4.6596585474       -1.2935909285        1.8146485989
 O          2.1786378531       -2.2400482351       -1.6877771025
 H          2.5842269721       -1.9413907475       -2.5316566285
 H          1.4359971816       -2.8146971738       -1.9046214186
 O         -0.2216892699       -3.2745093028       -2.8277074586
 H         -0.0293207202       -2.3153198273       -2.9646299077
 H         -0.7576729354       -3.3579464211       -2.0056737505
 O         -2.0280208717       -0.8828678002        2.8595696856
 H         -2.8583499452       -0.5229199408        2.5045785681
 H         -2.2476660601       -1.2477981879        3.7350312886
 O          1.3814533998       -0.8004712462        2.5869207539
 H          0.7417977629       -0.0811397170        2.7703501624
 H          1.0938236228       -1.5310217569        3.1667646992
 O         -0.1804499176        1.1972824127        3.3592127944
 H         -0.5592941200        0.7146634715        4.1226822680
 H         -0.9465033690        1.4261149322        2.8033009510
 O          2.0852798471       -5.2927072836       -0.3576305221
 H          2.0350168076       -5.3316550169       -1.3356524977
 H          1.2265953459       -5.6143950258       -0.0228150309
 O         -2.2320558996        2.1044595272        1.7758880559
 H         -1.6395910134        2.8696885209        1.6168370222
 H         -2.0793278595        1.4456094588        1.0609968744
 O          2.2136332390        3.6293233656        1.8244337310
 H          2.5882297474        2.9333297963        1.2351590733
 H          2.2354420127        3.2661849502        2.7380764117
 O         -1.6830659133       -3.4952496603       -0.6384990738
 H         -1.2534111486       -3.3544265270        0.2377371757
 H         -2.0430569258       -4.3972924867       -0.5759102055
 O         -3.6428273954       -1.8995736384        0.2631123252
 H         -4.3634056101       -1.5059791387       -0.2674992039
 H         -3.0104235244       -2.3723154006       -0.3114112105
 O         -3.1456071546       -0.5860895337       -2.2949116304
 H         -2.4757937178       -0.0527671872       -2.7335691713
 H         -3.6012392576        0.0445847605       -1.7002684836
 O         -0.5034398672        4.1256774779        1.9258481271
 H         -0.5765643526        4.1732996127        2.9071001404
 H          0.4191852341        3.8836840222        1.7510606720
 O         -2.8091693111        2.2687783512        4.4730439305
 H         -2.7263388896        2.0356528734        3.5340445498
 H         -3.6186062769        2.8376547930        4.5140394889
 O          2.4839171380        0.8507167376       -2.4796867897
 H          3.2513404515        0.9044193550       -3.0777072500
 H          1.8493644124        0.2233055306       -2.8751009660
 O         -2.6243450931        3.3369401251       -0.9533268857
 H         -2.8281281666        4.0781040959       -0.3562894882
 H         -1.6477800885        3.3111621858       -1.0055368008
 O          0.0246681477        3.6023881700       -0.9714105074
 H          0.2858515086        4.4292629902       -0.5562040282
 H          0.6482651149        3.4832662507       -1.7163760883
 O          0.5307389291       -0.8128158821       -3.3603598370
 H         -0.1857857446       -0.1318192172       -3.3195079659
 H          0.5984090009       -1.0322891113       -4.3156254600
 O         -4.7633808828        3.0862091900        1.5200940705
 H         -3.8708558287        2.6844521826        1.5458584346
 H         -5.3765274338        2.3766909235        1.2377512774
 O          1.8615387917        3.3225115353       -2.8799497832
 H          2.0788261753        2.3747012827       -2.6538616629
 H          2.6413147694        3.8177902866       -2.6039078332
 O          4.3374380822       -3.3085145064       -0.6529622380
 H          3.4484913758       -2.9885496324       -0.9342709028
 H          4.1925249310       -4.0729270814       -0.0721608674
 O          4.8971977824       -0.4044564535       -1.4855668406
 H          4.4829117404       -0.4692817927       -0.6079532815
 H          5.1825117226        0.5199090444       -1.5908677837
 O         -4.1776794514        1.1911813555       -0.5799833258
 H         -4.9592915694        1.4229168478       -1.1197147618
 H         -3.5538001954        1.9358213764       -0.6692201707
 O          3.6719944281       -1.4602377369       -3.7300840058
 H          4.0886741712       -2.3133054184       -3.9095279470
 H          4.2465376805       -1.0288548622       -3.0672016928
 O         -4.4877035381        0.0934435301        1.9885590506
 H         -5.1585160304       -0.6063155606        1.9241452532
 H         -4.4140745940        0.4796040602        1.0976943744
 O          3.5451730908        1.9767773777        0.2530364403
 H          4.3021513061        1.7320920835        0.8228409765
 H          3.8312655467        2.6282345267       -0.4119472952
 O          3.5134614424        0.1733774298        3.6525953668
 H          2.7831893919       -0.2455162584        3.1154535893
 H          3.5811685446       -0.4063474518        4.4304282418
 O          5.3467635598        1.3431291673        2.1479385592
 H          4.6910667725        0.8501620338        2.6860309648
 H          6.0932983525        0.7111562224        2.0210942823
 O          5.6761663121       -2.0505671130        3.0562053641
 H          6.3802522385       -1.3939347023        3.0941565252
 H          6.0372483061       -2.7778530623        2.5147238726
 O          6.9308501358       -1.7910279558       -0.4243061698
 H          6.0967174306       -1.5074999126       -0.8598538058
 H          6.7488435632       -2.6532474999       -0.0226563043
 O         -3.5320963485        3.0045686895       -3.4907922127
 H         -3.2271758526        3.0357542304       -2.5635081413
 H         -2.7945870902        3.3928839838       -3.9972475954
 O         -5.1143452915       -4.1166946237       -0.7040536250
 H         -4.9072062978       -3.7535723314       -1.5904892471
 H         -4.8104272353       -3.4360594977       -0.0829413826
 O         -6.6014793376       -1.7159658686        2.2557717402
 H         -7.2770468292       -1.1382333199        2.6244416469
 H         -7.0265398541       -2.1967122548        1.5159823423
 O         -5.9239536886       -0.9417897112       -0.7718562918
 H         -5.9999058403       -0.7954673474       -1.7351198108
 H         -6.1801674448       -0.1054179376       -0.3353318006
 O         -4.3107996396       -2.8569893264       -2.9646936043
 H         -3.8527143552       -2.0343154559       -2.6724437961
 H         -3.7187354193       -3.2244589475       -3.6336344544
 O         -6.6373051837        1.3295888597        0.6015680134
 H         -7.2585826278        1.0250983706        1.2955846245
 H         -7.0984346824        2.0080892649        0.0839776236
 O          6.0204914004        2.0747465964       -1.7321657884
 H          6.1538138084        2.6189921530       -0.9286575263
 H          6.8647069473        1.6549104058       -1.9346034238
 O          7.3965731217       -0.2686694518        1.7523783592
 H          8.0247104819        0.4123315065        1.4507043810
 H          7.2364087909       -0.8476641471        0.9744350945
 O          6.3925519402        3.3567382072        0.6022545258
 H          6.1431470328        2.6770145517        1.2476867307
 H          5.8493244735        4.1308517588        0.8677302323
 O          2.0905844846        2.3356812351        4.1623268881
 H          2.6852281826        1.5683602338        3.9799117003
 H          1.1992636447        2.0213858146        3.8974230488
 O         -0.9213373425       -3.1150881411        1.8791800599
 H         -1.3544671335       -2.3280597508        2.2778120948
 H         -1.4065777978       -3.9007796676        2.1898135611
 O          4.1709011919       -5.2180192650        1.3558762281
 H          3.7754739489       -4.7152496221        2.1013477521
 H          3.4200381577       -5.5723330460        0.8513056793
 O          1.6672035055       -2.9583008135        0.9711512313
 H          0.7712158077       -3.0364696546        1.3357147774
 H          1.8092026242       -3.7697427710        0.4501856328
 O         -3.1219797597       -5.7718161006       -0.2236189993
 H         -3.9577293575       -5.2681755903       -0.3923041286
 H         -3.0930366653       -6.4841783194       -0.8594116221
 O         -0.8559727070       -0.1530628621        5.5704544785
 H         -0.1067838111        0.2151155453        6.0897066942
 H         -1.6633715453       -0.0777034220        6.0830734688
 O         -4.3126603159       -3.0329472779        2.6467180233
 H         -3.9312871908       -2.5506624142        1.8871309665
 H         -5.2310627353       -2.7283583990        2.7013914473
 O         -6.2489805102       -0.9990351651       -3.4492605959
 H         -5.6849012519       -0.2816956624       -3.8010516900
 H         -5.6996835684       -1.8020802709       -3.4634758652
 O          2.5856014619        0.3434767839       -5.5605638350
 H          2.8534598826       -0.4071485778       -5.0010607243
 H          3.3171920348        0.9655150680       -5.4720535904
 O          3.1389905585       -3.4296718903        3.0940802286
 H          2.6236405306       -3.0601718036        2.3312835045
 H          3.8803827109       -2.8360180280        3.2539386834
 O         -6.2138964688        1.6402807064       -2.2349072465
 H         -6.1793144850        2.5727542503       -2.5361569137
 H         -7.1338085357        1.3594878325       -2.2288048230
 O         -0.7231496402        3.9652689833        4.5570203675
 H         -0.0037796987        3.6238952447        5.0891315859
 H         -1.4822043346        3.3510835565        4.6658439208
 O         -5.8908233261        4.1861755218       -2.9047970974
 H         -5.6571686786        4.5763892587       -2.0454489043
 H         -5.0364739522        3.9484796640       -3.3111194862
 O          6.5512514786       -3.9837004887        1.3145371890
 H          7.2543692823       -4.5836262893        1.5606371022
 H          5.7308545956       -4.5176581465        1.2668857898
 O          4.5020169670       -4.0111467001       -3.2366824090
 H          5.1524728577       -4.6894126723       -3.4097728193
 H          4.5738122260       -3.7819615174       -2.2799632326
 O          0.4914251929       -2.2970496505        4.5891507591
 H         -0.0493208285       -3.1072993710        4.5975429261
 H         -0.0865913577       -1.5982688965        4.9491131623
 O         -8.4253865635        0.4398312162        2.3857732326
 H         -8.8711375633       -0.0720379140        1.6716448362
 H         -8.8930529097        1.2943442669        2.3816112454
 O         -3.9403858160        0.1163309767        5.6717334939
 H         -4.8518062256        0.2625101776        5.3876543894
 H         -3.4501942532        0.8738444246        5.2922464577
 O         -1.2825334328        1.0078488368       -3.7109743975
 H         -0.6470586279        1.6205877057       -4.1310765833
 H         -1.7188449464        0.5478396029       -4.4591281734
 O         -7.5401753593       -2.8683433270        0.0075787438
 H         -7.0998432367       -3.6976480229       -0.2074224021
 H         -6.9777887808       -2.1678190044       -0.4049895204
 O         -2.6579968357       -5.1455746631        2.4738276727
 H         -2.7732426300       -5.5161873912        1.5873541702
 H         -3.4004630422       -4.5289829883        2.6028289427
 O          1.9160609117       -5.0989826436       -3.0176296753
 H          2.7332471130       -4.6557282326       -3.2943887886
 H          1.1729085038       -4.5005626758       -3.1818543926
 O         -4.6143353371        0.8497492146       -4.6549202741
 H         -5.1585589593        1.3178282624       -5.2881003945
 H         -4.1910668067        1.5531194461       -4.1065135884
 O          8.1333324376        0.1824401291       -1.8612048742
 H          9.0992071594        0.0786805858       -1.7985244416
 H          7.7683382161       -0.5740406176       -1.3642040700
 O          1.0185532301       -5.2931219477        3.2659681077
 H          1.7351331669       -4.6527617521        3.3637045451
 H          0.3602960247       -5.0788958416        3.9362449140
 O         -9.3348474011       -0.7732057642        0.1855107052
 H         -8.9965788800       -1.6782249548        0.1650849690
 H         -9.0625854261       -0.3820183373       -0.6604081277
 O          8.6729245846        1.7410934773        0.4381535069
 H          8.3963754181        1.3862208384       -0.4226712958
 H          8.1580111265        2.5473925775        0.5767678950
 O          4.6117085174        5.0680248192        1.6207788697
 H          4.9280399987        4.9238295931        2.5264382021
 H          3.7450540190        4.6252655438        1.6202540905
 O          4.8710054746        3.5565102765        3.8682740762
 H          5.1456711987        2.7478190996        3.4122909764
 H          4.0533964224        3.3508578885        4.3281999347
 O         -8.5372468168        0.0400097401       -2.3807959068
 H         -7.8104419077       -0.4642298484       -2.7958856781
 H         -9.2909188916       -0.0363582757       -2.9655618981
 O         -5.0978470628        3.5190221309        4.1760930405
 H         -5.6447098868        2.7452390846        4.3903695713
 H         -5.0799297922        3.5374150206        3.2012695874
 O          0.6797560638        2.2743157627       -5.0514544905
 H          1.2814960578        1.5662358015       -5.3412746236
 H          1.1859965524        2.7779946597       -4.3879716920
 O          4.6300180737        1.4700454490       -4.0537998520
 H          5.0220417953        2.0424298871       -3.3822857214
 H          5.2550723696        0.7280419117       -4.1488370939
 O         -0.2025160013       -5.7366127400        0.9178141811
 H          0.2227464510       -5.5502456338        1.7845727967
 H         -0.7318230226       -6.5216705310        1.0455365479
 O         -2.4402224976       -0.5707014371       -5.5283212588
 H         -2.4514596792       -1.4747644247       -5.1628135705
 H         -3.3155005231       -0.1870984324       -5.3421097865
 O         -5.3648909843        4.9253491741       -0.2957293747
 H         -4.8052538740        5.6880747846       -0.1417509391
 H         -5.0634809801        4.2428928390        0.3498942362
 O          1.4752858784        0.7527735170        6.4422932244
 H          1.7891867277        1.4371566214        5.8334914153
 H          2.0521110462       -0.0141495093        6.3188259449
 O          2.8746286763       -1.5733673443        5.5893280656
 H          3.4276880301       -2.3309894625        5.7770694017
 H          2.0343276019       -1.9338878648        5.2257007915
 O          3.8668002796        4.2746706264       -1.2240587014
 H          4.6858426704        4.7406085995       -1.0500924020
 H          3.1537594576        4.8055318120       -0.8172819512
 O         -6.0821248975        0.9697639386        4.0475284997
 H         -6.9729573032        0.8140653913        3.7196804535
 H         -5.4742395635        0.7407089017        3.3168728048
 O         -2.7931713931        5.2750675456        0.9991003533
 H         -3.3364427857        5.1432556166        1.7800422697
 H         -1.8840563994        5.0759648816        1.2783434858
 O         -2.1635903689       -3.1870287629       -4.6605378077
 H         -1.4401528416       -3.2709869323       -3.9938902540
 H         -1.8178788257       -3.5684956655       -5.4670613471
 O          1.8206636010        5.6160721181        0.0197536631
 H          1.8678607609        5.0365870580        0.7995572918
 H          1.9667773676        6.5102422727        0.3273002417
 O          6.5477464728       -0.4765675883       -4.0506041865
 H          7.1408045003       -0.2478452323       -3.3143569072
 H          7.0976240116       -0.6715221011       -4.8080999758
 O         10.5954320830        0.0379099384       -0.7737255411
 H         10.9192506256       -0.6905705086       -0.2425080092
 H         10.3986550175        0.7628191907       -0.1665700289
 O         -7.7589414381        3.6094023963       -0.5600895777
 H         -7.9100145134        3.7660804624       -1.4952643601
 H         -7.0265889292        4.2031714780       -0.3211444071
 O         -9.4976768815        2.6999808897        1.4091893964
 H         -8.9199064910        3.1610581406        0.7811341560
 H        -10.2592320947        2.4014356054        0.9104215826
 O         -1.2590453360       -4.3536662162        4.7306111064
 H         -1.8974764009       -3.6921808372        5.0482879093
 H         -1.7383152864       -4.8483632991        4.0503900148
 O         -3.0244868198       -2.2913188738        4.9450949973
 H         -3.6339982334       -2.6071013871        4.2543096826
 H         -3.4406073184       -1.5067189929        5.3547971630
 O          0.2979604810       -1.2667629868       -5.9659827236
 H          0.9655625983       -0.6742928435       -6.3268886738
 H         -0.5709662365       -0.8818231651       -6.1387602004
 O         -1.2834590122        4.1502325956       -4.4676794544
 H         -0.7885672436        4.4252424119       -3.6922978577
 H         -0.6861518123        3.5990877254       -4.9899735298
