  526

 H         -0.0000051266        0.0000024514       -0.0000026885
 O         -0.0806718938       -0.6418590630        0.7940375753
 H         -0.3261135977       -0.0487854430        1.6061883265
 H          0.8189767239       -1.1176547685        0.9049557153
 O         -0.8177593584        0.9266545146        2.5865540930
 H         -0.1680038994        1.2662389486        3.2316088288
 H         -1.5836689751        0.5937927313        3.0851839504
 O          0.2313797759        3.1186361393        1.2415305524
 H          0.8263621328        2.3652039460        1.4261331571
 H          0.0659227757        3.5715955025        2.0919183384
 O          0.0228540119       -3.6706926713       -1.7839536885
 H          0.4662936486       -2.7863308617       -1.8210967511
 H         -0.4114863419       -3.8019857584       -2.6482457227
 O         -0.5215263893       -2.6329551701        2.5076987053
 H         -0.7112794175       -2.6712197700        1.5467110495
 H         -1.4128884343       -2.5080831012        2.8857630041
 O         -0.0045505449        0.9833277129       -1.1272873589
 H          0.8557158502        1.4206168759       -1.3715807924
 H         -0.2011316074        0.3747204401       -1.8712600397
 O          1.3421983219       -1.4301157844       -1.6851985120
 H          1.8878206059       -1.0160998718       -2.3753042061
 H          1.8961570047       -1.5689462158       -0.9031164144
 O          2.1154652121        2.2037212255       -1.8563604822
 H          2.7410244573        1.6020321762       -1.3933913406
 H          2.1397570796        3.0353991101       -1.3538497311
 O         -4.3512772484        2.0164377254        1.9499130981
 H         -4.6590742174        2.1391290510        2.8725384270
 H         -4.2054828640        1.0513140755        1.8474563932
 O         -2.7685862448        0.3387025399        4.2269714148
 H         -2.1281699474        0.0346343376        4.8919736378
 H         -3.6099765839       -0.1292179778        4.3968290286
 O          2.1562111267       -1.8058928568        0.8466759995
 H          2.9373846510       -1.4659441894        1.3426987149
 H          2.1001568185       -2.7698082845        1.0187276501
 O          2.7416655548       -4.2206367905       -1.6829987880
 H          3.0001005112       -5.1536682399       -1.7199685406
 H          1.7773853753       -4.1518288535       -1.6997458605
 O         -2.4223046853       -0.3282072770       -0.6453585645
 H         -2.1668135672        0.5241908640       -0.2379553283
 H         -1.9892669653       -0.3581177096       -1.5061827564
 O         -1.6287576179       -2.7925545758        0.1295937874
 H         -1.0970289869       -3.2210001183       -0.5659666366
 H         -1.8676385400       -1.9000506367       -0.1708049819
 O          1.2396255119       -0.8889629521        3.4074006076
 H          2.0350623434       -1.2971099892        3.8091939687
 H          0.6797362982       -1.6142591274        3.0527222228
 O         -2.0821583207        2.0944438303        0.4570187036
 H         -2.6935833403        2.1311231195        1.2057854890
 H         -1.2016994998        2.3530226714        0.8032729341
 O         -0.5130698367        3.6539049366       -1.3882951261
 H         -0.5563390987        2.7248619090       -1.1116825478
 H         -0.0507665825        3.6293287215       -2.2485862653
 O         -0.9508308243       -0.5962864449       -2.9986373216
 H         -1.3974686923        0.0339668621       -3.6114713963
 H         -0.2784672874       -1.0350813704       -3.5727410020
 O          0.4481124114        3.4235534366       -3.8206189890
 H          0.2761845939        2.6248937845       -4.3552373376
 H          0.0866354920        4.2028824314       -4.2674513160
 O          1.8715415391        1.0412061173        1.6071692563
 H          1.7749635151        0.3660503805        2.3054731300
 H          2.3062904702        0.6341753511        0.8361367524
 O          7.1205700522       -0.7955981333       -2.7928003291
 H          6.9532686127       -0.2445800110       -3.5788913624
 H          7.4957780995       -0.1706386962       -2.1524425542
 O          2.0828942763        4.3167361979       -0.2518839066
 H          1.3196709449        4.0008390397        0.2785729103
 H          2.7269690129        4.6795054409        0.3855390278
 O         -2.3004614503        0.8609233380       -4.6618146258
 H         -2.2021739437        1.8232886488       -4.6099227490
 H         -3.2142142017        0.6596988042       -4.3754427620
 O         -3.0512048083       -2.2591742606       -2.6372619410
 H         -2.1830903216       -1.8563509602       -2.8148288580
 H         -2.9012832254       -3.1595907697       -2.2909294025
 O          0.6897009587       -1.6615263331       -4.7427256999
 H          0.8813713960       -2.5959058490       -4.5175467926
 H          1.5142551933       -1.1693242794       -4.6317557338
 O          4.6505928719       -1.3136889392       -1.8772054546
 H          5.5682221072       -1.1236173186       -2.1653160063
 H          4.6922812939       -1.9623696352       -1.1357984748
 O         -2.9909100693       -4.6489108418       -1.4587253792
 H         -3.9374584042       -4.8320543521       -1.5487244620
 H         -2.5460219484       -5.5122270623       -1.4488781195
 O          1.4499757399       -4.1790308484       -4.2709005860
 H          2.2747915021       -3.7649743490       -3.9482543565
 H          1.5938399376       -4.3204537243       -5.2341805139
 O          2.0398569507       -4.3765930465        1.3885459723
 H          2.7381482427       -4.9858456961        1.0784951207
 H          2.1104020720       -4.3743448856        2.3666407135
 O          4.0256522706        2.6124481930        1.7249050002
 H          3.2720212510        1.9931759577        1.7322420483
 H          3.6966102450        3.3529132692        2.2539146760
 O         -1.3820157473       -3.9706367427       -4.0716989297
 H         -1.5096386794       -3.0952880367       -4.4991436288
 H         -2.2787021533       -4.3490869936       -3.9965827490
 O          2.5836960881        0.0360715334       -3.5778509320
 H          2.0467993439        0.8318074478       -3.5057920380
 H          3.4804313073        0.3219323218       -3.3439078281
 O         -0.3589124520       -0.2381460471        5.3733934904
 H          0.2170991066       -0.5262714870        4.6208791946
 H         -0.1078605319        0.6689097400        5.5562098497
 O         -4.4214028833        0.0685350675       -3.2749636087
 H         -4.1449759819        0.6588993737       -2.5443278293
 H         -4.0700806417       -0.8136677043       -3.0843475707
 O         -3.0855850616       -2.3704737679        3.2709812236
 H         -2.9167245635       -2.2776721589        4.2379215397
 H         -3.6824640484       -3.1287715570        3.1728431552
 O          0.4306665743        1.2932940805       -5.3424466239
 H          1.2187903560        0.7774661479       -5.6155697246
 H         -0.2845085892        1.0545436630       -5.9677873504
 O          0.9537620760        1.9930431201        4.3493066530
 H          1.7752787780        1.4503500915        4.2809532400
 H          1.2186280467        2.8154611634        3.8761204171
 O         -3.8991740978       -0.5476187656        1.5940380809
 H         -3.4852216652       -0.6653113521        0.7275511129
 H         -3.4456895836       -1.1479885038        2.2271665310
 O         -2.4055267050       -2.2779504636        5.7808263467
 H         -2.3562727480       -1.4481897523        6.2884444448
 H         -1.4754796305       -2.5602432858        5.6158535085
 O          0.5285724872       -6.2620623613       -0.9613570657
 H          0.2891469593       -5.3232858458       -1.0296647734
 H          0.9608004536       -6.5087030457       -1.8061958291
 O          3.4378721763        0.4826007158       -0.4511510686
 H          3.7598787058       -0.2118285427       -1.0645269468
 H          4.2618862512        0.8508637307       -0.0876832144
 O         -3.2958033289       -4.4820527505        1.3637605564
 H         -3.3660508859       -5.3621763533        0.9517889421
 H         -2.6768746656       -3.9586217006        0.8121835790
 O          4.9611992333        3.1198441848       -0.6323537077
 H          4.6604830712        3.9738058480       -0.9714718439
 H          4.5437270741        2.9729696465        0.2566575653
 O          4.1744612775       -0.7378470515        2.1648711001
 H          3.8952940723       -0.1254245069        2.8681136531
 H          4.7324828107       -0.2478764628        1.5564531556
 O         -0.5488449247        4.2780996995        3.5506356837
 H         -0.8905256391        5.1458652939        3.2853885843
 H         -1.3481880512        3.7333859801        3.7455754883
 O         -6.0510302871        0.5614977479       -0.2612351477
 H         -6.5090675184        0.6818975450       -1.1228583256
 H         -5.5733952170       -0.2883209947       -0.3664790622
 O          4.4395027315       -3.1899652891       -0.0694740048
 H          3.7023329146       -3.5798765877       -0.5996724013
 H          5.2424877090       -3.6900602603       -0.3089099528
 O         -5.6760326472       -3.6932067551        0.6737707632
 H         -4.7634116145       -4.0097589869        0.9239531835
 H         -5.9181321085       -3.0786654475        1.4027107841
 O          1.6816879977       -6.6455577639       -3.2819235009
 H          1.4676030379       -7.2141707514       -4.0269420381
 H          1.6313934091       -5.7300593399       -3.6585513683
 O         -1.9116149140        6.6005800482        2.7827845383
 H         -2.8783363289        6.4793201385        2.7134804776
 H         -1.5804919854        6.1720245262        1.9659295229
 O          2.2204717979        3.9811873190        3.1767828426
 H          1.7662558183        4.7224306567        2.7333920997
 H          2.6121301083        4.2973386510        4.0071352616
 O         -1.6188704596        5.2030409142        0.5813766584
 H         -2.5414936937        4.8969220445        0.5161881485
 H         -1.0368910837        4.4535464992        0.3931778537
 O          3.0935158371        3.3788989450       -4.1332591737
 H          2.1524372991        3.3092543936       -3.8685440899
 H          3.3205892455        4.3283444852       -4.0589872110
 O          1.5641045370        6.1980204294       -1.9802435502
 H          0.8187335358        6.6489310001       -1.5281158329
 H          1.7202447373        5.3917768459       -1.4223378669
 O         -4.0294984066        1.9200992558       -1.3804882088
 H         -4.7010714922        1.5372324001       -0.7809292154
 H         -3.2626844352        2.1298556243       -0.8231194559
 O         -2.0732261613       -1.7826714136       -5.3640494782
 H         -1.9281970779       -0.8311717779       -5.4005374123
 H         -3.0300878061       -1.9045117944       -5.2709962129
 O         -4.9072969334       -1.7166358672       -0.8722345900
 H         -4.0317554324       -1.8662003488       -1.2741864292
 H         -5.1401804678       -2.5081418263       -0.3392897848
 O         -4.7563596418       -4.5807354378        3.6991850487
 H         -5.3697016690       -5.0273497064        3.0797995271
 H         -4.1926101164       -5.3164547096        4.0058680618
 O          5.9090150532        0.6437251567        0.4415416849
 H          6.1604109227        1.0077642816        1.3145983880
 H          6.5096976711        1.0440219254       -0.2196850700
 O         -4.1857079471        4.2192835421        0.2954295601
 H         -4.2827187911        3.4688323118        0.9018850158
 H         -5.0950535995        4.5530817627        0.1351196469
 O         -6.1167135540       -1.7261619696        2.3410281627
 H         -6.9303812922       -1.3446215601        1.9486327197
 H         -5.3623215014       -1.2295038672        1.9500904369
 O         -0.5615937598        7.2084679931       -0.7737006839
 H         -0.8817269653        6.4302604262       -0.2539190667
 H         -1.1768899857        7.2524485582       -1.5418086035
 O          0.0090763740       -3.1648803778        5.1700309877
 H          0.0203686561       -4.0430587334        5.5805024333
 H         -0.0799176002       -3.3084072938        4.2182060760
 O          3.8442424742        5.6143822954        1.2796480121
 H          3.8846309783        6.3502540356        0.6362322096
 H          3.6157987359        5.9985947086        2.1444994355
 O          6.3714437037        1.2690777640        2.9763219582
 H          6.2400536735        0.5905588719        3.6539687151
 H          5.7584053407        1.9956554466        3.2121512564
 O          3.4162662014       -1.9955445833        4.4478842423
 H          3.2384262312       -2.5667666123        5.2103057847
 H          3.6927708646       -2.5775499407        3.7065386030
 O          2.4736588192       -3.6731767504        6.5014353697
 H          2.2145035310       -4.0396577836        5.6318748830
 H          1.8002566781       -3.0147707717        6.7464891262
 O          4.6964844902        1.6491419798       -2.9009080626
 H          4.9606123031        2.0578818391       -2.0580963630
 H          4.1162467508        2.3116412831       -3.3321697244
 O         -2.8442160689        4.5331762805       -2.0105212490
 H         -1.9483845080        4.2179867780       -1.7061540077
 H         -3.4487675509        4.4038104299       -1.2563160735
 O          6.9294791407       -1.8108475233        0.0246592454
 H          6.3656133900       -1.0137829799        0.0611212705
 H          7.8322499451       -1.4469363381        0.1016855762
 O         -2.7113259270        2.9959129146        4.1958054346
 H         -2.8455132591        2.0469638352        4.0030307921
 H         -2.5133302469        2.9935251350        5.1598916079
 O          0.5434571856        2.7962612248        6.8395908165
 H          0.7276069937        2.4793847421        5.9182223886
 H          0.4770306700        3.7658306465        6.7325526447
 O         -4.6000112231        4.8924323347        4.6469667320
 H         -3.9832200657        4.2197798224        4.2963197555
 H         -5.4005669769        4.8137349911        4.1145068961
 O         -5.1281950530       -0.7784331099        4.7272904748
 H         -5.0212059189       -1.6141471557        5.2460555446
 H         -5.5737432793       -1.0687687312        3.9074493102
 O          0.9288965641        5.9969692747        1.9447318763
 H          0.8846800756        6.5203792364        2.7721107329
 H          1.2846202385        6.6119769048        1.2924359915
 O         -8.1062709457       -0.6261130679        0.9714749818
 H         -8.6073141461       -0.1154850349        1.6102682812
 H         -7.4454482010       -0.0204900824        0.5645904653
 O         -5.4804379940        1.9301678819        4.3329051719
 H         -5.4622455799        0.9767926011        4.4869669345
 H         -5.2560268928        2.3578606582        5.1783283644
 O         -1.6235095839        3.7191080009       -6.9340193522
 H         -2.5325294913        3.9210009355       -7.2400723763
 H         -1.7149605941        3.7174793515       -5.9701706228
 O         -5.5737863929       -5.0540897793       -2.2338837503
 H         -5.8368198969       -4.1668016872       -2.5766701971
 H         -6.3329973990       -5.4110430215       -1.7746209637
 O         -2.3496049293        7.0142927767       -2.6963591728
 H         -3.0240033902        7.5465609182       -2.2609514288
 H         -2.5828406801        6.0767678757       -2.4441565945
 O         -6.9486206716        0.8993091974       -2.7300892273
 H         -6.8039311087        1.8553027813       -2.8220105458
 H         -6.1166011416        0.4898297422       -3.0479029969
 O          3.7109186919        2.6599552530       -6.5759851907
 H          3.3978914923        2.8898402295       -5.6650796993
 H          3.0976649587        3.1064198915       -7.1698654107
 O         -6.6684050894        5.0399337113       -0.2042527749
 H         -7.2378817837        4.2675907165       -0.4117148023
 H         -6.6267070777        5.5687696812       -1.0067350013
 O          0.8369735532       -1.5757322516        7.3340846225
 H          0.2119710197       -2.2108875628        7.7335821894
 H          0.3579225186       -1.2314620284        6.5440576896
 O          3.0196308299        4.7065599515        5.6765693854
 H          2.1763407855        4.9953987105        6.0454305161
 H          3.3013318255        3.9125188119        6.1662916127
 O          4.9476389542        3.1656342423        4.2529949227
 H          5.4486667549        2.9000041857        5.0462104828
 H          5.4334045432        3.8803254160        3.8007996976
 O          3.3419137351        0.9270881654        4.1816066761
 H          3.4056618581        0.4699180807        5.0392938150
 H          3.8583234837        1.7500796455        4.2243302308
 O          3.6047315742       -2.6857654931       -3.8400533151
 H          3.9237117326       -2.1512290459       -4.5868426060
 H          3.8327896956       -2.1594965074       -3.0442553501
 O         -4.8304938251       -2.0403501100       -5.3359076381
 H         -4.6294180399       -2.8331198692       -5.8693539552
 H         -5.2625944616       -2.3469615839       -4.5202385178
 O         -7.0996232385        2.0257611076        1.8836560492
 H         -7.3173501610        1.4225147736        2.6125285473
 H         -6.1719569735        1.8504680341        1.6477891038
 O         -4.8114582390        3.1315051722        6.6755772070
 H         -3.8724184577        3.0717688321        6.9137796067
 H         -4.8939098911        3.9737251889        6.1926033821
 O         -0.4968224886       -5.1767077421        1.2054305769
 H         -0.8067823126       -4.5889169917        1.9036700958
 H          0.4545862299       -4.9778031091        1.1465601384
 O          3.9905594825       -6.6405350962       -1.9303307379
 H          4.6731053491       -6.2295804048       -2.4736656567
 H          3.2723126569       -6.9072132298       -2.5345446987
 O         -1.0593829002       -4.7947472047       -6.6486596591
 H         -0.6545875619       -4.0514372192       -7.1206107835
 H         -1.0150525266       -4.5541740775       -5.7039637313
 O         -1.6555974719       -4.8444953838        3.6330974179
 H         -2.3934232058       -4.7770340900        3.0065945216
 H         -2.0174648067       -4.7895491208        4.5319914749
 O         -0.0823907840       -2.2866116033       -7.3553884221
 H         -0.0495374086       -1.9488783084       -6.4412813092
 H         -1.0053628566       -2.1407301000       -7.6752030048
 O          2.5770781504        0.2421120393       -6.4847106144
 H          3.0550750520        1.0876452755       -6.6139235909
 H          2.0663845452        0.0852814562       -7.3215149524
 O         -2.1530520405        2.6000275454        6.7187043576
 H         -1.2228488236        2.7626659130        6.9452939441
 H         -2.2758879316        1.6272325108        6.8014043163
 O          3.4333274422        6.0012107726       -4.0139271449
 H          2.7661093201        6.2342136724       -3.3508147882
 H          2.9620229866        6.0877248916       -4.8809664062
 O         -1.2537972819       -6.8067245082       -4.0259855721
 H         -0.9696374897       -5.8904604996       -3.9034274590
 H         -0.6938831830       -7.1278383313       -4.7470075135
 O          5.7682587152       -0.7274947271        4.7598534498
 H          6.2374956092       -1.3177324041        5.3527012842
 H          4.8748693164       -1.1336650409        4.6311740868
 O          3.9407372256       -6.1709977719        0.7636314531
 H          4.8307803777       -5.8964598106        1.0419987892
 H          4.0192086204       -6.4394501051       -0.1662907747
 O          1.4889892494       -7.3760178432        1.3399441539
 H          2.4403640573       -7.2164887798        1.3052875364
 H          1.1189254763       -6.8754619760        0.5873975869
 O         -2.6608967828        3.5067282506       -4.3960490819
 H         -2.7575080482        3.7577233076       -3.4511090881
 H         -3.5184103392        3.1198705063       -4.6664692231
 O         -6.2286681176       -2.5792597613       -3.0168726551
 H         -5.7058288594       -2.1385955308       -2.3067465658
 H         -7.1270515510       -2.5769557169       -2.6534095472
 O         -3.6811202325       -5.4572256067       -4.1941331345
 H         -3.1242394918       -6.2474215176       -4.1646115137
 H         -4.3720578395       -5.5286771417       -3.5200853500
 O         -5.8294796621        3.3719194822       -2.7467145076
 H         -5.7720267154        4.3421601981       -2.6680197607
 H         -5.1016114274        3.0036135630       -2.2079732557
 O         -1.8826702234       -7.1777369946       -1.4403020424
 H         -1.7420137220       -7.3020966615       -2.3925076818
 H         -1.0173814439       -6.8416087177       -1.1067338628
 O          4.4529876925       -3.4629637511        2.5137071360
 H          4.2883732751       -3.3644987353        1.5481187843
 H          5.3207306380       -3.0312445298        2.6353433723
 O          5.3073479306       -4.6752407508       -3.4728768331
 H          5.9862284470       -4.2018006735       -3.9939111581
 H          4.5593911380       -4.0270678138       -3.4586370247
 O         -4.9831596794       -3.1221891709        5.9063379300
 H         -4.0587166048       -3.1136897277        6.1952539606
 H         -4.9931330607       -3.7334054088        5.1402914096
 O          6.3229881947        0.8691013892       -4.7652169609
 H          5.7252784856        1.2302603438       -4.0574842246
 H          6.6530131574        1.6326440227       -5.2410565430
 O         -5.0013825003        2.4000377093       -5.0629334915
 H         -5.4482067259        2.8092872875       -4.2912784577
 H         -5.4962172290        1.5815980801       -5.2611715974
 O          2.2073994878       -4.7369242603        4.0379370112
 H          1.5322772213       -5.4561662042        3.9694965933
 H          3.0693041256       -5.1815893995        4.0848372328
 O          0.2898587038        5.2613955542        5.8586253755
 H         -0.5672761697        5.6661502697        6.0822869634
 H          0.0976814785        4.8290409647        4.9864040259
 O         -2.4457539727        0.0039437074        7.1781360345
 H         -3.3728349147        0.0806371029        7.4927787690
 H         -1.8088631162        0.1181517005        7.9126107588
 O          4.7514794097       -5.6860650894        3.8318524424
 H          5.1605367840       -6.4102633978        3.3594074184
 H          4.6912065311       -4.9378715077        3.1862090911
 O          3.2333078522        2.4115446900        7.1762693336
 H          3.2666252113        1.4465270679        7.0390392207
 H          2.3074242433        2.5888286371        7.3971009650
 O         -7.8907603525       -2.7777912138       -0.8961045494
 H         -8.2069484218       -2.0533370932       -0.3432518798
 H         -7.2334862888       -3.2406894854       -0.3621152465
 O          5.1196227239        5.5052589205       -1.9431639851
 H          5.0051340760        6.2927012265       -1.4011948232
 H          4.6628904274        5.6987545231       -2.7757522264
 O         -1.8024667075       -7.3228097777        2.1131942058
 H         -1.3068935494       -6.5531901058        1.7445645599
 H         -1.3793750037       -8.1123804095        1.7149372253
 O          6.1245733994        4.9705778551        2.6192774858
 H          5.3575028353        5.1010180405        2.0308966685
 H          6.8251188528        4.6769493272        2.0253450584
 O         -3.9708758163        7.2255372448       -0.4862666789
 H         -4.2720301815        6.6878017942        0.2617812132
 H         -3.4505627810        7.9283352075       -0.0530447432
 O         -2.1505972475        8.6717107115        0.9354688783
 H         -1.4772003404        8.3194565370        0.3342475403
 H         -2.0610222448        8.1619335990        1.7567228476
 O         -0.2775467136        0.5811437774        8.5990873584
 H          0.2808676001       -0.1686740784        8.3241733551
 H          0.1013135494        1.3704091388        8.1977242430
 O          3.9656968598        6.4784245496        3.8664763593
 H          3.7902788428        5.8450059708        4.5852021031
 H          4.9161635662        6.4421343644        3.7250872962
 O          3.6071182154        7.4540138850       -0.6466143150
 H          3.1400379971        8.1432289304       -0.1599511036
 H          2.9228611246        7.0518693014       -1.2192588294
 O          6.8630093089       -2.3452702859        2.6230056183
 H          6.5919109168       -1.5205855155        3.0491741902
 H          6.8855753278       -2.1705921025        1.6474047833
 O          1.1059398857        3.4504202144       -6.9318753870
 H          0.9304342175        2.6837700519       -6.3509719755
 H          0.2437654515        3.6894333854       -7.2937799180
 O         -2.2063186920        6.1627658286        5.5385981651
 H         -3.1006972092        5.8111941028        5.4552746654
 H         -2.0143014626        6.5750884730        4.6858157040
 O          7.2703570704        4.0812965078        0.2268969285
 H          7.6812707381        4.4687345119       -0.5458191513
 H          6.4305084050        3.6659067163       -0.0951588324
 O          1.2779415690        7.3188645843        4.2077603495
 H          2.2426242790        7.2835920046        4.2018447862
 H          0.9792572471        6.7633362971        4.9442898191
 O          1.4296906376        8.4022471980        0.7016396979
 H          1.0780083323        8.8536448272        1.4703971890
 H          0.6870496793        8.2391887161        0.1011471336
 O          3.2208136504       -0.2312663584        6.6510502511
 H          3.9189405902       -0.8971167305        6.8309944586
 H          2.4012711930       -0.6621978445        6.9318803383
 O          7.0416172644        3.6756805013       -2.7401211324
 H          6.7796756480        3.5400839676       -3.6619277992
 H          6.4009562701        4.3163683114       -2.3926551449
 O         -3.9061997096        0.0932830948       -6.9976525216
 H         -4.6155872074        0.6762413780       -7.2700494860
 H         -4.2785072940       -0.5073050289       -6.3364552709
 O         -1.3178013635        1.0791927140       -7.3283415826
 H         -2.1987150147        0.6973778366       -7.2060810563
 H         -1.4522663409        2.0478003619       -7.3524615282
 O         -0.1783545868        6.0249638292       -4.1443274358
 H         -0.9594079897        6.4880277503       -3.8227589430
 H          0.4736199943        6.0755749046       -3.4220456033
 O         -5.4260273550        6.0230798699       -2.5549774753
 H         -4.9491283778        6.1035826313       -3.3994888055
 H         -4.9024476820        6.4793463514       -1.8778733448
 O         -3.4502485607       -6.8802344175        4.2034540645
 H         -4.1946061210       -7.3725985822        3.8576189979
 H         -2.7225408138       -7.0346155696        3.5658330149
 O         -6.4596837766        4.5842734082        2.5169570577
 H         -6.8466393499        4.9340032147        1.7033222472
 H         -6.6920687406        3.6350607766        2.4960396948
 O          7.6702710073        1.4733858581       -1.3682312821
 H          8.4611859009        1.6818021512       -0.8671088712
 H          7.4347580290        2.2688285355       -1.8975858899
 O          6.6202481063       -4.3220295987       -1.1365156030
 H          7.0320014974       -3.4486193638       -1.1448241721
 H          6.2246174910       -4.4890672778       -2.0163601227
 O         -3.7149654886       -4.1798095142       -6.5750182020
 H         -2.7903941143       -4.4381645942       -6.7712550225
 H         -3.9352908936       -4.7451032563       -5.8183612246
 O         -3.8270994423        5.9546161801       -4.8312312918
 H         -3.2404895340        6.7033234728       -4.7040343709
 H         -3.2826615801        5.1542152799       -4.6998266876
 O          1.8740225761       -4.1286996324       -6.8914656412
 H          1.3011157444       -3.4383064799       -7.2555979275
 H          2.7853359942       -3.8523808022       -7.0447174862
 O          0.7549921499       -6.7627359735       -5.8884092333
 H          1.6728063731       -6.4774284107       -5.9715126274
 H          0.2303359809       -6.1216413308       -6.3968106339
 O          1.8161396574        5.9164666720       -6.0571619754
 H          0.9954492736        6.1520944599       -5.6027131573
 H          1.6574133494        5.0271036519       -6.4271986796
 O          5.9033222128        3.6852302216       -5.2788147059
 H          5.2572680013        3.2569272911       -5.8682736359
 H          5.6366809337        4.6047967275       -5.2330592679
 O         -6.4983867536        0.1928225321       -5.5012037811
 H         -6.0635990181       -0.6695289417       -5.4167089201
 H         -7.1541354543        0.2389170353       -4.7987345066
 O         -8.1398078431        2.8358183192       -0.4935320619
 H         -7.8743056629        2.4492133750        0.3601050910
 H         -8.1446939141        2.1341182318       -1.1464794708
 O         -3.8393784712       -7.0047779212        0.5030108915
 H         -3.1678629352       -7.2741587463        1.1731352405
 H         -3.4276724389       -7.2284928437       -0.3408740335
 O          4.5736266824       -3.5756800814       -6.7199181019
 H          4.5985211193       -2.6121607737       -6.6115076304
 H          5.3962539354       -3.8925438729       -6.3421800217
 O         -2.5807914841       -2.0395424789       -8.1928530336
 H         -3.0229169282       -1.2207398489       -7.9281842011
 H         -3.0890703216       -2.7605251391       -7.8053359756
 O          0.9420510309       -0.0699375861       -8.4840836685
 H          0.6407447670       -0.9795467330       -8.3024280962
 H          0.1637313757        0.4772035798       -8.2991321973
 O          0.4358778069       -6.6200324786        3.7792088072
 H          0.7179823361       -7.0272864446        2.9379602882
 H         -0.3921477429       -6.1320218307        3.5949389397
 O          4.7150032287       -1.0639791252       -5.7207557990
 H          5.3092217198       -0.3312841118       -5.4660386286
 H          3.8864982522       -0.6215390257       -6.0229531151
 O          0.2663397773       -5.6726321723        6.3356667937
 H          1.0995709376       -5.5055113607        6.7853489716
 H          0.4338301812       -6.2678772441        5.5885517581
 O          8.4970920115        2.0681998194        1.5063452264
 H          7.8845650584        1.8910346033        2.2375175799
 H          8.1304923608        2.8461585330        1.0462580386
 O         -2.4091933780       -5.1207459847        6.2419707663
 H         -2.9473180063       -5.8733333331        5.9758110942
 H         -1.5325942332       -5.4768634998        6.4529822285
 O          6.1778771192       -3.6499585376        5.0931757021
 H          6.6675063433       -3.3677194959        4.3136749739
 H          5.7100361016       -4.4638701359        4.8460603665
 O          6.7701347401       -2.8094596350       -4.6706681260
 H          7.1716045278       -2.2923366864       -3.9595330786
 H          6.1633806984       -2.1990775193       -5.1089056185
 O          6.4612376371       -5.2703651326        1.4107651106
 H          6.8299973523       -4.5306954882        1.9004197734
 H          6.7124161279       -5.1219618311        0.4862234687
 O          5.9303104783        1.7026705696        6.2370223738
 H          5.8227527877        0.8076356143        5.8809098401
 H          5.2552815644        1.8328660218        6.9077083262
 O          4.7929910586       -2.3472313244        7.0613841633
 H          5.3749247082       -2.8341543810        6.4551702202
 H          4.0371460967       -2.9393869024        7.1912329735
 O          8.9792087258       -0.4847790816        0.9399047569
 H          8.9966751811       -0.8636422815        1.8196876469
 H          8.8599068078        0.4788968213        1.0706912930
 O         -0.5757285029       -9.0458755985        0.5454403801
 H         -0.8820801226       -8.6741268678       -0.2888839126
 H          0.3101842036       -8.6935352408        0.7176609815
 O         -1.2185397479       -3.1356940214        8.1391071062
 H         -1.8864769765       -2.5410137145        8.4827554060
 H         -1.6653135470       -3.7039435046        7.4974233199
 O         -5.0338019674        0.4071657685        7.3387434640
 H         -5.1399920693        1.3624292672        7.2362425467
 H         -5.2763078964        0.0024116821        6.4966990068
 O         -6.0511925763       -6.0883850435        1.8903541233
 H         -6.2711257371       -5.3547439755        1.2975960313
 H         -5.3637113112       -6.5842928949        1.4191288302
 O         -7.7891292762        0.2055174404        3.7997913778
 H         -7.7862974065        0.7429755557        4.5913785394
 H         -7.7551812229       -0.7257342974        4.0972669232
 O         -4.2377179452        4.1360832221       -6.9924652457
 H         -4.3101814456        4.9382486494       -6.4612803688
 H         -4.6347568070        3.4353963558       -6.4464915444
 O         -4.4989122763        6.3855427018        2.1083317501
 H         -4.9612459679        7.1437210978        2.4623866390
 H         -5.0780327550        5.6136197811        2.2602136958
 O          3.5391675811       -5.9363425442       -5.2920523073
 H          4.2026021133       -5.6803489555       -4.6367037951
 H          3.6984293545       -5.3683448200       -6.0501067387
 O         -7.4793468826       -2.3825893697        4.6451689038
 H         -7.1596961140       -2.8169621832        3.8490290543
 H         -6.8739204795       -2.6358934348        5.3511402951
