  192

 H         -0.5425054112       -1.1597996584        0.9180873600
 C         -0.6112510051       -0.5412956740        0.0100749184
 H         -0.5391308395       -1.1969144468       -0.8712436599
 C          0.5103658647        0.5037878334       -0.0094871837
 H          0.3911098456        1.1518924073        0.8600966287
 H          0.3944399220        1.1152669957       -0.9056411630
 O         -1.7891825170        0.2100258094       -0.0077307043
 H         -2.5646581753       -0.3620747641        0.0026734601
 N          1.8637421187       -0.1172780949        0.0059475209
 H          1.9871272140       -0.7237037740       -0.8163106227
 H          1.9839787967       -0.6890763208        0.8531041604
 H          2.5930828886        0.6072400319       -0.0077051379
 O          4.1914526579        0.7667568167        1.3453926212
 H          4.5811256644        0.5051685594        2.2072748596
 H          4.8298235450        1.3964982981        0.9569351290
 O          0.1116272122        0.3930570873       -3.1139600490
 H          0.9002586733        0.2164083057       -3.6422173028
 H         -0.2916008491        1.1991666624       -3.4792841175
 O          1.6065047782       -0.8145310380        2.6437293452
 H          1.1797297654       -0.0642298165        3.0967989721
 H          0.9648736567       -1.5533891679        2.6677014312
 O          0.3044378790        1.2736933352        3.8112079907
 H         -0.4896426940        1.3899099014        3.2368064097
 H          0.0265567693        0.6067530099        4.4734947497
 O         -1.2833900921        2.6768930534       -3.8146469328
 H         -1.7501471439        2.2110365586       -4.5233990169
 H         -1.8385956040        2.4847965618       -3.0211247913
 O         -4.3883487691       -0.2972845122        0.2974556289
 H         -4.6209934868        0.5097474928        0.7899288800
 H         -4.5836447973       -0.1289372796       -0.6479167720
 O         -2.7161613538        2.0381775680       -1.7170117310
 H         -2.2147209194        1.4173157701       -1.1620457376
 H         -3.1542596008        2.6618747303       -1.1040236308
 O         -1.8204482859        1.6023353194        2.2595270980
 H         -1.8524216002        1.1064669116        1.4212855341
 H         -1.8250610598        2.5558854914        2.0248564426
 O         -0.2591999946       -2.7686520780        2.6550058806
 H         -1.2128437858       -2.6079716953        2.5357015493
 H         -0.0337402640       -3.3092522292        1.8620620339
 O         -4.6219640351        0.2472880275       -2.2877702200
 H         -4.5880050480       -0.3922319199       -3.0347443937
 H         -3.9023514376        0.8971743046       -2.4057816040
 O         -6.8040469721        1.6964739463       -1.9490848320
 H         -5.9807447238        1.1838028688       -2.1145987523
 H         -6.5120269267        2.6319358681       -2.0455447275
 O          2.8009277304       -2.6149853840        0.8966110518
 H          3.7015117596       -2.4196091568        1.2205746237
 H          2.4496632125       -3.2326857578        1.5686916763
 O          2.0779775605       -1.6604076904       -2.1566373644
 H          2.3405882666       -1.1246825568       -2.9328737070
 H          2.7388075202       -2.3663199634       -2.0407531780
 O         -1.8607960578       -1.4074062219       -3.2004284135
 H         -1.0982265155       -0.7898310805       -3.1120786377
 H         -2.2454430403       -1.5238093647       -2.3173816663
 O         -2.8638331166       -2.2418821127        1.9946909014
 H         -3.5364245342       -2.8892565105        2.2173956920
 H         -2.9970798721       -1.4765371793        2.6036394014
 O          2.9792816057        2.1849356729       -0.8843232996
 H          3.3712896588        3.0148663288       -0.5924047671
 H          2.1592063909        2.4352096427       -1.3505771679
 O          4.3052702068        1.8151050767       -3.1853205625
 H          5.2132486419        1.5161170148       -3.0465057637
 H          3.8868885481        1.7961139352       -2.2987042672
 O          0.8943674705        3.3189610841       -2.1682175996
 H          0.1828146147        3.1706640702       -2.8064537654
 H          1.5879479946        3.8256598016       -2.6457962527
 O         -5.2526487441        1.7232394738        1.9320907505
 H         -5.4653925215        1.0661773818        2.6275485083
 H         -6.1051662903        1.8734905810        1.4683862455
 O          0.7839120683        4.1729358982        0.4276710782
 H          1.2283378415        3.4370659569        0.8742563848
 H          0.7363282031        3.9459096235       -0.5168355696
 O         -0.0836548397       -4.1289979820        0.3899909675
 H          0.0258747487       -3.8224007841       -0.5281378177
 H         -0.9367649604       -4.5831793692        0.3876945178
 O          2.1329079308        2.3326459408        2.0537906045
 H          2.8517214695        1.6889805490        1.8670241180
 H          1.6400363730        2.0142241604        2.8252556402
 O         -3.8314674100        3.4710248874        0.2648953186
 H         -3.0985956790        3.9080702751        0.7336310420
 H         -4.2698968002        2.9011911392        0.9101260436
 O          5.9485327017        2.5790882235        0.2533076954
 H          6.2246095341        2.0015417009       -0.5003120607
 H          5.4639635190        3.3269838520       -0.1320299379
 O         -1.6082415967        4.1818856077        1.6107267713
 H         -1.4276387335        4.3682957660        2.5538493658
 H         -0.7530398208        4.2917132174        1.1420290767
 O         -3.0590850817       -0.2807590579        3.7584051513
 H         -2.7590530451        0.5638812605        3.3705206164
 H         -3.9868618127       -0.1616270878        4.0048878688
 O         -5.7962853834       -0.2146372178        3.7280170187
 H         -6.5963855930       -0.2926410167        4.2469050153
 H         -5.8038165736       -0.9761744495        3.0843766496
 O          3.3091104930        4.6872083525        2.1180503374
 H          2.6102324894        5.3378075222        2.2065629870
 H          2.8552537505        3.8092169822        2.1710142596
 O         -5.7956843448       -1.9918881231        1.7979098961
 H         -5.2071012529       -1.4737092007        1.2026504511
 H         -6.7051971867       -1.7500838207        1.5001486495
 O          4.7029960585       -0.8426877776       -0.8014016668
 H          4.5154958420       -0.4237865016        0.0585796016
 H          5.1589109959       -1.6834858609       -0.6019103247
 O          4.2600362970        4.6498391850       -0.3438197420
 H          3.8790884776        4.7284204895        0.5716574867
 H          4.6964988935        5.4835486564       -0.5175276543
 O          5.3500734852        0.5769230703        3.7463549486
 H          5.4447187807        1.5482802547        3.7202344780
 H          6.2211499180        0.2139693956        3.5638190809
 O          2.6739195545       -0.0664286857       -4.2491821198
 H          3.2362271476        0.6811485222       -3.9578099514
 H          3.2941745945       -0.7047301003       -4.6182560558
 O         -2.8949862282       -2.3585799800       -0.7577140703
 H         -2.9506975610       -2.2591879798        0.2105848050
 H         -2.6332213541       -3.2898292335       -0.8607223341
 O         -0.6727571898       -0.9271279563        4.9561578091
 H         -0.4238751120       -1.7227063385        4.4746238478
 H         -1.6045325405       -0.7644416336        4.7357005317
 O         -5.1844073942       -4.3743824238        0.5381544762
 H         -5.4737634855       -3.6687085655        1.1405831588
 H         -5.4527998205       -4.0698908537       -0.3454718189
 O          3.4085441414       -3.8761496344       -1.2946670671
 H          2.8384908962       -4.6305711538       -1.4462647806
 H          3.0918188586       -3.4597641702       -0.4425982684
 O         -5.4235479385       -2.8027850300       -1.7239847942
 H         -4.5916511057       -2.4557246000       -1.3441563957
 H         -6.1063364415       -2.1225169906       -1.6221370663
 O          5.9204524569       -3.2577013518       -0.5023615188
 H          5.8225310801       -3.2883421237        0.4623601734
 H          5.1362781923       -3.7076043950       -0.8673080308
 O          3.1639363206        4.3447632563       -3.1013671583
 H          3.6003744453        4.6009847057       -2.2819905056
 H          3.6307776770        3.5565615553       -3.4248064517
 O          6.9614655030       -0.2646479549        1.4403902338
 H          7.3736628149       -0.6167578494        0.6359136018
 H          7.4880498805        0.5191400530        1.6818489274
 O          5.2581886619       -2.3099862144        1.9631312327
 H          5.8748874186       -1.5633975479        1.8816091784
 H          4.8309174482       -2.2250077725        2.8398404283
 O          7.9291668794       -1.4122072236       -0.9109685218
 H          8.8069833726       -1.7947288994       -0.9166546812
 H          7.3017690621       -2.1564087947       -0.8996306313
 O         -5.5920205174        4.0481694417       -1.8319011432
 H         -5.0961827825        3.9945034543       -1.0024560992
 H         -4.9284822930        4.2982790845       -2.4913059341
 O         -7.5881908262       -0.9992514145       -1.8391574739
 H         -8.1065844689       -1.3383240506       -2.5697745803
 H         -7.4666207383       -0.0493929187       -1.9953574124
 O         -7.5200593936        1.8065439325        0.5530188804
 H         -8.1710144663        2.5062522799        0.6078528727
 H         -7.2533734247        1.7533244195       -0.4109391811
 O          3.7068261676       -1.7047749145        4.0703330723
 H          2.9514161319       -1.3455878044        3.5544553750
 H          4.1812328020       -0.9373676402        4.4059592546
 O         -2.8993407610        0.7033878710       -4.7516713989
 H         -2.5393643105       -0.0830912194       -4.3091380063
 H         -3.6339406028        0.3971100097       -5.2839982192
 O          2.2883039100       -4.0233655577        3.1298319462
 H          2.8257198765       -3.4948756350        3.7315336450
 H          1.3702870396       -3.9098020210        3.3918195318
 O          6.4733180813        0.8876766541       -1.7109254184
 H          7.3045814837        0.4029448014       -1.6993035723
 H          5.8020615569        0.2221451492       -1.4143468892
 O          5.5821455864        3.1802653692        2.9909196130
 H          5.7088103903        3.0188572376        2.0442875750
 H          4.8954645666        3.8530230766        3.0499737843
 O         -1.1259770322        3.8430395890        4.2217237243
 H         -0.4868561844        3.1322936251        4.3499246116
 H         -1.9995270924        3.4363450192        4.3331878200
 O         -2.6858178449       -4.9903110918       -0.1667374103
 H         -2.7283318301       -5.7794743682       -0.7053802067
 H         -3.5865866447       -4.8601661250        0.2091458574
 O         -8.0192970692       -0.9134568958        0.8867035910
 H         -8.0396004373       -1.1295353281       -0.0578712313
 H         -7.9330882959        0.0531240670        0.9186373629
 O         -3.6597250487        2.6170079956        4.1076435117
 H         -4.3141372904        2.7802180209        4.7849936078
 H         -4.1385524716        2.4969760547        3.2756975510
 O         -4.5238911517       -1.7469069527       -4.0668951222
 H         -3.5892229794       -1.9852747602       -4.0682589109
 H         -4.9524333309       -2.3569707977       -3.4382875780
 O         -0.0405483185       -3.3347529242       -2.2236726739
 H          0.7242073722       -2.7333578907       -2.2848135753
 H         -0.7376565042       -2.9242882101       -2.7516728303
 O         -3.1646855108        4.7156297416       -3.0405124485
 H         -2.6695761003        5.2132743821       -2.3883359374
 H         -2.5220205699        4.2112598713       -3.5559874158
 O          8.1235748799        2.1179714697        1.9807723087
 H          7.6847616289        2.5181877769        1.2187459108
 H          7.7772470702        2.5708829274        2.7539945205
 O          4.7012670411       -1.7714346860       -3.4926026512
 H          5.0943845819       -2.6396769287       -3.4057343056
 H          4.6873201890       -1.3840073372       -2.6070591088
