  132

 H         -0.5425054112       -1.1597996585        0.9180873603
 C         -0.6112510051       -0.5412956740        0.0100749183
 H         -0.5391308395       -1.1969144470       -0.8712436601
 C          0.5103658647        0.5037878336       -0.0094871839
 H          0.3911098457        1.1518924072        0.8600966289
 H          0.3944399221        1.1152669956       -0.9056411629
 O         -1.7891825170        0.2100258093       -0.0077307040
 H         -2.5646581753       -0.3620747641        0.0026734602
 N          1.8637421187       -0.1172780949        0.0059475209
 H          1.9871272141       -0.7237037740       -0.8163106223
 H          1.9839787968       -0.6890763206        0.8531041602
 H          2.5930828886        0.6072400317       -0.0077051379
 O          3.2982529749        2.1204219011        0.3619957840
 H          2.8641578070        2.7117551675       -0.2696693399
 H          2.9277689660        2.3529990720        1.2426444837
 O          1.8342356346       -1.8399340332        2.0761703416
 H          1.6081500206       -2.6356006857        1.5426666296
 H          2.7300583102       -1.9906967663        2.4279490167
 O          1.9109128745       -1.6247710861       -2.2385226562
 H          2.8799883357       -1.6474510133       -2.3315054342
 H          1.5684919195       -0.9765864262       -2.8803762251
 O          0.4845487692        0.0071137128       -3.9313677563
 H          0.8369335033        0.0849563629       -4.8184029638
 H          0.4976661095        0.9183452852       -3.5511777462
 O         -4.2459133576       -0.5550113257       -0.1558165991
 H         -4.5367408126       -0.5012696632        0.7859823257
 H         -4.5149126114        0.2873211787       -0.5712740355
 O          2.1484981626        2.6513567877        2.7187380591
 H          1.5857638327        1.9183922212        3.0325100488
 H          3.0023554104        2.5290735778        3.1561854252
 O          1.2041954018       -3.9583115355        0.6001993396
 H          0.4662354533       -4.2755881363        1.1512781229
 H          0.8281814606       -3.9007907179       -0.3159297778
 O          4.7960370451       -0.1314857245        0.5280158139
 H          4.4465962603        0.7757165785        0.5581911440
 H          5.7722032788       -0.0366290300        0.5437809684
 O          1.4040449518        3.7552045408       -0.8479400246
 H          1.6160805202        4.6841951785       -0.9447016174
 H          0.7983467010        3.6888174172       -0.0717227104
 O         -0.1177572021        3.6208724870        1.3316824056
 H          0.6133486754        3.5862135229        1.9641238605
 H         -0.7840871637        2.9918165840        1.6828478847
 O         -1.9184861057        1.8220512189        2.2425685736
 H         -2.8278922599        2.1097053612        2.3801972269
 H         -1.9687289750        1.1180955981        1.5684844240
 O          0.2716356479        2.4727266413       -2.9663624540
 H         -0.6691533514        2.4679777648       -2.7179662948
 H          0.7334247857        2.9609465721       -2.2609283526
 O          0.3415567743        0.7449774678        3.3577860152
 H          0.2093761186       -0.0221706942        3.9177349223
 H         -0.5392963702        1.1007088354        3.1601378189
 O         -4.6001663136        2.3978626541        1.5611430719
 H         -5.4938096400        2.4553734057        1.1935746565
 H         -4.0513340541        2.9655434658        0.9896616141
 O          4.5222543475       -1.8241477529       -1.5323232923
 H          4.5205135104       -1.1293482924       -0.8380117618
 H          4.3659630302       -2.6571204157       -1.0584544938
 O         -4.9528270245        1.5265669264       -1.7565544041
 H         -5.0845426369        0.8962646788       -2.4896681826
 H         -4.0660821103        1.9079613485       -1.8827708603
 O         -2.2485027742        1.8599821391       -2.0503803032
 H         -2.2886856492        1.1249619068       -2.6994218439
 H         -2.0263911997        1.3881488266       -1.2177647092
 O         -2.1713180168       -0.4518607773       -3.4169688880
 H         -1.2491270476       -0.4011421340       -3.7304144024
 H         -2.1979524598       -1.2066600506       -2.7958694932
 O         -5.1577423614       -0.2243365902        2.3195479644
 H         -5.0195696055        0.7353461702        2.2993837341
 H         -6.0678082698       -0.3734365266        1.9904943140
 O         -2.3480720477       -2.6638078539       -1.8463607566
 H         -2.9691144559       -3.2437733272       -2.2899694444
 H         -2.5784951328       -2.7156788566       -0.8814118256
 O         -2.5102975013       -0.9921577582        2.3869399296
 H         -3.3316411293       -0.8307482947        2.8620166112
 H         -1.8331369444       -1.3293584835        3.0091905855
 O          2.9509820061        0.9911327328       -2.3350700791
 H          2.5821609398        1.7360587736       -2.8100585411
 H          3.8812229333        1.2305089192       -2.1571215392
 O          7.4908685735        0.0135600949        0.5149759736
 H          7.6058457347       -0.3094804901       -0.3909982892
 H          7.5876229285       -0.7557618626        1.1136048779
 O         -7.3220890717       -0.5782070201        0.7704510781
 H         -7.4022322827        0.3541965274        0.5197756548
 H         -7.1414069252       -1.0639930529       -0.0491249591
 O         -6.1274435468       -1.9012948321       -1.4502444345
 H         -6.0915505678       -1.6509455483       -2.3768335700
 H         -5.3441257199       -1.4701307748       -1.0377765220
 O         -2.9190662534       -2.9641223140        0.7001924474
 H         -2.8124554969       -2.1723219562        1.2855446228
 H         -3.8709415954       -3.2048149686        0.7622334301
 O         -1.0789156399       -4.3406290815        2.0194420642
 H         -1.7572284195       -3.8741100886        1.4727081661
 H         -1.4683594003       -5.1791855397        2.2606867210
 O         -0.4248958345       -2.1388667169        3.6231042794
 H          0.4132846238       -1.9278152370        3.1720913305
 H         -0.6504228544       -3.0274610690        3.3093197908
 O         -4.8984095161       -0.3823142585       -3.6874088449
 H         -5.1686678012       -0.1782795666       -4.5822922856
 H         -3.9277334100       -0.4663479763       -3.7000567208
 O         -5.5506372531       -3.4040537979        0.8117552586
 H         -6.0345857155       -2.8862751683        1.4602129691
 H         -5.9134590821       -3.1522822549       -0.0504097146
 O          3.8498951167       -3.9641235051        0.1098052021
 H          4.1344649857       -4.8544979916       -0.0967961861
 H          2.8826617131       -4.0183041881        0.2628156097
 O         -2.8338588042        3.8242159089       -0.0171207381
 H         -2.0188742117        4.0890830318        0.4202765611
 H         -2.5838595100        3.3942932904       -0.8414890023
 O          5.5138458826        1.7069231183       -1.8032201484
 H          6.1116811066        0.9494751554       -1.8871521119
 H          5.6596772207        2.0875084992       -0.9254007189
 O          0.2315328657       -3.7196131083       -1.8229440842
 H          0.8273171692       -3.0192942330       -2.1411273884
 H         -0.6738150649       -3.3730203925       -1.8832485248
 O          4.5055327834       -2.2249474069        2.1563432530
 H          4.3742646615       -2.9206332695        1.4897929585
 H          4.5641237555       -1.3848358624        1.6522291294
 O          6.9390064422       -0.7457080447       -2.0724600177
 H          7.2731691535       -0.8752897957       -2.9595818559
 H          6.0990847798       -1.2478419640       -2.0053327407
 O          4.7589115524        1.8163323002        3.0208929919
 H          5.2655607971        2.1354415431        2.2557165720
 H          5.3540091367        1.2830095826        3.5480278549
 O         -6.9173427125        2.0978017744        0.0092326179
 H         -7.5317029079        2.7749944383       -0.2738550744
 H         -6.2763722326        1.9672668302       -0.7153474432
 O          7.2156378859       -2.1702215006        2.0229880957
 H          7.4400981933       -3.0244110169        1.6546829802
 H          6.2775730341       -2.2207567972        2.2970559806
 O          6.3999556679        2.4595272654        0.8280884144
 H          6.9879976311        1.6823524819        0.7947511214
 H          6.9579374004        3.2368463511        0.8606594025
