  117

 H         -0.5425054112       -1.1597996585        0.9180873602
 C         -0.6112510051       -0.5412956740        0.0100749183
 H         -0.5391308395       -1.1969144470       -0.8712436601
 C          0.5103658647        0.5037878335       -0.0094871839
 H          0.3911098457        1.1518924073        0.8600966290
 H          0.3944399221        1.1152669957       -0.9056411629
 O         -1.7891825170        0.2100258093       -0.0077307040
 H         -2.5646581753       -0.3620747641        0.0026734602
 N          1.8637421187       -0.1172780949        0.0059475209
 H          1.9871272141       -0.7237037739       -0.8163106224
 H          1.9839787968       -0.6890763205        0.8531041600
 H          2.5930828886        0.6072400317       -0.0077051379
 O          3.2642630696        2.0029635282        0.8910095106
 H          4.1820825621        1.7746515732        1.0820290917
 H          2.7692625299        1.9298186387        1.7428070675
 O          0.4425070948       -0.6663804551        3.1152057053
 H         -0.4741382960       -0.3218211911        3.1077588872
 H          0.5272803044       -1.2070873189        3.9003129190
 O         -2.0482375501        0.3163739000        2.8196923904
 H         -1.9962436873        0.4585622289        1.8601250914
 H         -2.4606535238        1.1047028821        3.1797434842
 O         -3.6267922976       -1.3943255051        1.1809939825
 H         -4.1947135310       -0.6526648924        1.4741451392
 H         -3.0461013280       -1.6404589871        1.9101061657
 O          3.3156185621       -4.6789532349        0.4276863283
 H          2.7312078025       -4.7043522457       -0.3409013383
 H          2.7218425071       -4.5781113684        1.1833997937
 O          1.9507953646       -1.7951930549       -2.1043154413
 H          1.5438115551       -2.6132961446       -1.7334893165
 H          1.3158937583       -1.4210188203       -2.7294859295
 O          1.0706077152       -3.5441008761        1.7907395423
 H          1.5816631665       -2.7607404869        2.0589455020
 H          0.1384917742       -3.3647601382        2.0191548282
 O         -1.6054875847       -3.1770433377        1.9825903878
 H         -1.7763284832       -3.3718399601        1.0304396504
 H         -2.0035737425       -3.8986509288        2.4709940126
 O         -3.8232326533       -0.7747751737       -1.7321786454
 H         -4.5222110880       -0.1607533780       -1.4494202194
 H         -4.1436933319       -1.6676381283       -1.5063079256
 O          2.1367754862        3.6503216841       -0.9747195392
 H          2.0147632755        3.0380840432       -1.7190585699
 H          2.6385216565        3.1611328080       -0.2995352909
 O         -0.3636813013        2.8792605341        2.3622786080
 H         -0.2198785933        3.4889637771        1.6197265570
 H         -1.3038133133        2.9191479522        2.5696193247
 O          1.9044478694        1.5920131859        3.1199358026
 H          1.4568611525        0.7169711360        3.1189539937
 H          1.1721746530        2.2267038209        3.0712750940
 O          4.7448383211       -2.4923301907        0.3551198158
 H          5.6680584995       -2.6048398055        0.6207751634
 H          4.3153210422       -3.3882544236        0.3597300040
 O         -0.1374324426        4.3385503381        0.0578608519
 H         -0.1940909951        5.2913153583       -0.0100959973
 H          0.7362754190        4.0854934035       -0.3555841324
 O         -5.1376151054        0.7868398618        1.5403487670
 H         -4.5645181471        1.4768059705        1.9092183242
 H         -5.2990586407        1.0418114424        0.6120646844
 O         -3.2923765014        2.8275312451        2.2222007279
 H         -3.7770399374        3.6271986788        2.4290977688
 H         -3.0218985728        2.8951599287        1.2706600809
 O         -2.3610886405        2.8651153710       -0.2549993350
 H         -1.5460306390        3.4043152483       -0.2363124780
 H         -2.0848802878        1.9332748589       -0.3169039975
 O         -2.5253908492        0.6288226597       -3.5372467130
 H         -2.9376174081        0.0458326369       -2.8524022585
 H         -2.9354277925        0.3926085786       -4.3707298487
 O         -2.0793852675       -3.7953354066       -0.5852443309
 H         -3.0429880739       -3.8428848675       -0.6438297561
 H         -1.8090123744       -3.2515732063       -1.3427298656
 O          2.8653744659       -1.5289481213        2.0349278716
 H          3.5941665828       -1.9239970408        1.5236179341
 H          3.2873453628       -1.0062377562        2.7516725767
 O          0.9263811056       -3.8877277993       -0.8501026801
 H          0.9236545311       -3.7410503622        0.1253132744
 H          0.0277630020       -4.1395126138       -1.0786921390
 O          4.6681888275       -1.7606407806       -2.2172424991
 H          4.7181018384       -2.1075627978       -1.3004448555
 H          3.7772123263       -1.9957887536       -2.5169439705
 O          0.0690265560       -0.1929754815       -3.4658210778
 H         -0.8096166080        0.2307800246       -3.5077494507
 H          0.7048241963        0.5298493578       -3.3245386626
 O          5.5774867625        0.4320032836        1.0934333816
 H          5.9947575270        0.9308328066        0.3589793378
 H          5.0332075615       -0.2440703104        0.6697258443
 O          4.2016499044        0.1215679774        3.6343935508
 H          4.8697038720        0.4416336060        3.0182016095
 H          3.5554289904        0.8312148063        3.7537018987
 O         -4.7638507472       -3.0465743093       -0.5690109961
 H         -4.3984531052       -2.5455092490        0.1905451845
 H         -5.7128490283       -2.8930747808       -0.5056499353
 O         -5.5800827967        1.2482230011       -1.1053073702
 H         -6.4683903828        1.2595177855       -1.4618256629
 H         -5.0418394837        1.8970902690       -1.6360946459
 O         -6.8457794148       -1.4498454563        0.4836238967
 H         -6.3794042511       -0.7452443572        0.9482080400
 H         -7.7016126848       -1.5363037376        0.9041344034
 O          1.9953366827        1.7144116295       -2.9500366471
 H          2.7662908350        1.2941004280       -2.4872430322
 H          2.3294493174        2.0623005094       -3.7779110873
 O         -3.9465907060        2.7741811847       -2.4666907400
 H         -3.3924638038        3.0405636553       -1.7132986606
 H         -3.4058206735        2.1363863118       -2.9632469279
 O          4.0097277995        0.7234552862       -1.5870745608
 H          4.2890434900       -0.1663882428       -1.9066843720
 H          4.8136218672        1.2600946791       -1.5512984241
 O          7.3020513436       -0.8736415444       -1.8141921556
 H          7.4343214115       -1.3268205679       -0.9660904609
 H          6.5437898531       -1.2986664557       -2.2366693338
 O         -1.0648819496       -2.6255135488       -2.8533468227
 H         -0.7153668195       -1.7641344441       -3.1302210300
 H         -1.3399950301       -3.0844278126       -3.6467953423
 O          6.5843747921        1.5425004713       -1.1263511782
 H          6.9455938408        0.6825343674       -1.4775302029
 H          7.2567599085        2.2084370463       -1.2676186224
 O          7.3177118429       -1.6781673540        0.8768035861
 H          8.1038823839       -1.8083967882        1.4054587943
 H          6.8847596271       -0.8645025751        1.1965969564
