  536

 H          0.4630928832        1.1941026737        0.8323450662
 C          0.5529030748        0.5095414433       -0.0251095521
 H          0.4633422866        1.0989793033       -0.9466421694
 C         -0.5779250824       -0.5149466716        0.0205351059
 H         -0.4518494353       -1.1270262304        0.9278112304
 H         -0.4840894887       -1.1748675230       -0.8448934789
 N         -1.8603255302        0.1647669450       -0.0623290306
 H         -2.6131021761       -0.5138468064       -0.0751535694
 H         -1.9956543039        0.7570089104        0.7508192383
 O          1.7808079493       -0.1833439485        0.0209854728
 H          2.5006941298        0.4507208910       -0.0567173008
 O          3.7918691469       -1.8125270562       -0.0437039897
 H          4.0605611858       -2.6727608876        0.3156193220
 H          3.9776728998       -1.8335385253       -0.9906594936
 O         -1.9292039034        1.1865291909       -2.4413639876
 H         -2.7116076290        0.7603738119       -2.8027435653
 H         -1.9199233396        0.9169180526       -1.4697925462
 O          1.6827854084       -1.6306669869       -2.2057521802
 H          1.9262431700       -2.5474632452       -1.9616038340
 H          1.7540233022       -1.1264897482       -1.3685625506
 O         -3.5899278474       -2.8613188159        0.2482255415
 H         -4.1650804665       -2.0769524290        0.1710272532
 H         -3.0757246655       -2.7554057709        1.0771200371
 O          4.4069558839       -0.0234236654        1.8122766139
 H          4.1925378438       -0.6676746742        1.1078815139
 H          4.8763953404        0.7197038610        1.3868474032
 O         -4.8332267790       -5.2086916757        0.4105318003
 H         -5.7207021624       -5.1489501755        0.8001840514
 H         -4.4846342514       -4.2865918355        0.3536542057
 O          1.6859251671       -1.9951624936        1.9953672624
 H          2.5229244024       -1.9717754492        2.5081896033
 H          1.8294195634       -1.3965017535        1.2383058266
 O         -0.6915345222       -2.2203948672       -3.0052594120
 H         -1.0581166987       -1.8199179765       -3.8298911178
 H          0.2034241286       -1.8403700815       -2.8230082457
 O         -2.0304182853       -2.7703672011        2.4054934339
 H         -2.5407252164       -3.2890038694        3.0640529199
 H         -1.3156569396       -3.3638148551        2.1295159529
 O         -1.5550965850        1.1091193292        4.4224171760
 H         -0.9741277527        0.4375111556        4.0049710334
 H         -2.1644916717        0.5849982594        4.9773589418
 O          1.6913276733        2.4517176104       -2.4999751732
 H          1.3818704733        3.0521536345       -3.2123900040
 H          1.5856572271        2.9418903961       -1.6537651864
 O         -1.6506777398        3.7545360830       -3.1022778197
 H         -1.5697370182        4.2095515527       -2.2462682922
 H         -1.7725620376        2.8037771896       -2.8959823003
 O          2.0118067640        0.5758922248        2.9381176122
 H          2.8870368145        0.4057948926        2.5370047685
 H          2.1559142570        0.7164342969        3.8860623095
 O         -3.3592560947        2.1264562585        2.7286744876
 H         -2.7578784079        2.4542936668        2.0348348006
 H         -2.7648197774        1.9499752619        3.4904427131
 O         -0.2299221212       -1.0157905909        3.5989174340
 H          0.5250574293       -1.1340148284        2.9864573651
 H         -0.8826241147       -1.6867533868        3.3351020000
 O          1.7072537666       -4.4561967243        1.2834503458
 H          1.7053494260       -3.5044788020        1.5924698525
 H          0.7661069803       -4.7013573343        1.2846044086
 O         -4.4960565705       -0.2910353735        2.8516302677
 H         -4.7088876401       -0.5203288347        1.9146938908
 H         -4.0010637454        0.5490065784        2.7796152742
 O         -0.8680397154       -4.9276618314        0.9571865510
 H         -1.1935645452       -4.5564398305        0.1075079403
 H         -1.6356631360       -5.3828354861        1.3853369518
 O         -1.7929256122       -3.9555327210       -1.3051338950
 H         -1.3341610625       -3.2878820506       -1.8426170702
 H         -2.5611882452       -3.5062066818       -0.8868588624
 O          3.3398176009        2.6696919022        1.1118603730
 H          3.7050866019        2.2007278017        0.3485217404
 H          2.5541540254        3.1255341538        0.7729386118
 O          3.8926570549        1.0215729522       -1.0035293520
 H          4.7044547593        0.5034731002       -0.8847071495
 H          3.5648030791        0.7687270795       -1.8896630836
 O         -0.0056135565       -3.8109779531        3.9465061042
 H         -0.1919803898       -4.7635150422        3.8656767731
 H          0.8977577837       -3.7554741048        4.2984525121
 O          6.1913626065        1.6329750776        0.8331537199
 H          5.8688977967        2.3933856576        0.2966882832
 H          6.6373258822        2.0348568603        1.5906213956
 O          0.9295564052        2.9249230157        2.6910590944
 H          0.6155289772        2.9746503519        3.6216911147
 H          1.3948326071        2.0473970309        2.6483217263
 O         -5.4126736645       -2.5570510133        4.2032020410
 H         -5.5952222498       -2.0987589622        5.0471287743
 H         -5.1881059908       -1.8644237454        3.5663087187
 O         -3.9912775181        1.9681618419       -0.2134457257
 H         -3.7453912968        2.8755188828        0.0596894347
 H         -4.1482214634        2.0347248445       -1.1707144155
 O          6.2089433395       -2.3632956371        1.8505083501
 H          6.5139313335       -2.9066099964        2.6032481170
 H          6.2638066174       -2.9014972988        1.0469212660
 O         -3.5176562853        4.5300890865        0.2940013449
 H         -4.3039330754        4.9696094430        0.6525189985
 H         -3.4998129290        4.8126744941       -0.6326045479
 O          4.3063548863        5.4435351335        1.2104026650
 H          3.5419550913        5.2968385127        1.7935018790
 H          4.4891225290        4.5944401604        0.7558332572
 O          3.2725071084        0.0829589320       -3.4384754967
 H          2.6102091992       -0.5725498655       -3.1502908955
 H          2.8381936353        0.7510531868       -4.0151374325
 O         -4.8616295212       -0.5045005552        0.2622811107
 H         -5.8139165515       -0.5339117253        0.0245344533
 H         -4.5430139571        0.3904686197        0.0410387435
 O         -6.0941724250       -2.7606207981        1.4884093461
 H         -6.7254845634       -2.1112437749        1.8397621619
 H         -6.0451095319       -3.4842855288        2.1292101964
 O         -3.2123569203       -1.2523998122       -2.2692347827
 H         -3.5952882631       -2.1177380784       -2.4706985988
 H         -2.2626204805       -1.3657090114       -2.3802034398
 O          3.9307120622       -2.1979326323        3.3310133855
 H          4.1086143189       -1.4227636982        3.8983592586
 H          4.6857783499       -2.2659121780        2.7146840855
 O          4.0600861685        2.3019097993        3.6155419493
 H          3.7313105370        2.3870396292        2.6939947859
 H          3.8715794784        3.1424433313        4.0599452115
 O          0.2154837606        2.8885505553        5.2643301898
 H          0.9678272385        2.3227189957        5.5272620381
 H         -0.5306046339        2.2775009007        5.0776589799
 O          4.3869803115       -4.3319099595        0.7873558332
 H          3.4668367534       -4.6323198536        0.8491979250
 H          4.7488914325       -4.7098056597       -0.0257336209
 O          5.3624613593        3.6940006424       -0.5241413964
 H          4.9577050872        3.5574986843       -1.4021729994
 H          5.9807335045        4.4571187247       -0.5809350810
 O         -6.1962548520        1.8545129500        1.4872416360
 H         -6.4630006682        1.8570893771        0.5428818967
 H         -5.2360876179        1.9450356170        1.4666697836
 O         -3.2332894746       -0.7308636979        5.3576127185
 H         -3.6027331447       -0.7742710831        4.4635551198
 H         -2.7164235756       -1.5573394803        5.4836281865
 O          4.6905791844       -0.1320047064        4.9444980579
 H          4.2458428334        0.6826029727        4.6593297522
 H          5.5097975692       -0.1699722734        4.4015096415
 O         -4.4464566189       -0.4478840361       -4.9232180134
 H         -4.8547440136       -0.1295738252       -4.0869364914
 H         -4.8486834830       -1.3297403368       -5.0807495828
 O         -5.8339599279       -0.9188464947        6.2836293557
 H         -4.8778125191       -0.7992326112        6.3882752044
 H         -6.1219798134       -0.1416947237        5.7592139098
 O         -6.3371245097        0.9750243115        4.4420653819
 H         -5.9226087819        1.7699514153        4.8633804769
 H         -5.6764582371        0.6085026287        3.8237035028
 O         -4.6830973871        4.4491727357        3.1857434569
 H         -4.2761426015        3.5813383425        2.9734991378
 H         -3.9377485862        5.0600513301        3.2037752095
 O          5.2544530466       -5.6798983083        2.9055446582
 H          4.9302339100       -5.0509937418        2.2245854302
 H          6.0136304187       -6.0881801799        2.4605826029
 O         -4.3648971142       -3.6528105766       -2.6826542604
 H         -4.4271566842       -4.6197143480       -2.6026501825
 H         -5.0528302468       -3.2978868610       -2.0588815878
 O         -6.2787077426       -2.7893420758       -1.1972316455
 H         -6.9114045204       -3.4515618148       -1.5012116510
 H         -6.2120937352       -2.8375309822       -0.2238220418
 O         -1.7826242115       -2.9455978805        5.7429276386
 H         -1.0685025546       -3.1852064492        5.1084045297
 H         -1.3400524800       -2.5740413102        6.5295899694
 O         -7.6992680618       -0.7521993882        2.4620887116
 H         -7.1940946314        0.0688128547        2.4362788835
 H         -7.7434530610       -1.0590983652        3.3921174882
 O         -2.9268529336       -6.0947997680        2.0521891943
 H         -3.0315922992       -5.6521684542        2.9061603341
 H         -3.7156633262       -5.8366252435        1.5274576284
 O          3.2091616126        5.8948225379       -1.2318651224
 H          3.9511378628        5.7839408569       -1.8549691938
 H          3.6251046520        5.9896450921       -0.3530138035
 O         -3.4536159580       -4.2721084583        4.1350028300
 H         -2.9040866338       -4.1079969185        4.9159203058
 H         -4.1975190865       -3.6186867675        4.2022657648
 O         -0.1943500401       -4.5229400384       -4.2842774775
 H         -1.0185835606       -5.0282801013       -4.1499715987
 H         -0.3298842917       -3.6955807791       -3.7669359399
 O          2.1169896944       -4.0822122501       -1.3608294052
 H          1.9116961122       -4.2110983237       -0.4147978314
 H          1.7377897332       -4.8543111189       -1.8469659989
 O          4.2223495761        3.1333237224       -2.8742924405
 H          3.3426568888        2.7428003755       -2.6779486315
 H          4.7836844877        2.4092139439       -3.2002255389
 O          4.4883997990       -2.3909537410       -2.6721750476
 H          3.7541994912       -2.7815395135       -3.1726330960
 H          5.2526942123       -2.3536955820       -3.2749887051
 O          6.6846986445       -0.0826489840        3.2649378045
 H          6.0098399153       -0.2774715790        2.5831953283
 H          6.9109803205        0.8544846103        3.1750147747
 O          6.2559513280       -0.3261737069       -0.9911750717
 H          6.3515320502       -1.3013497072       -0.9411821801
 H          6.4588690091        0.0110318903       -0.1064003063
 O          0.2683952318        0.4800586580       -3.6546374610
 H         -0.5981469415        0.6590854414       -3.2215199224
 H          0.8978073761        1.0820329870       -3.2183788213
 O         -6.9904528917        4.6121832619       -1.8320313068
 H         -7.2976070394        4.4024088436       -2.7275180526
 H         -6.7142759087        3.7233475054       -1.4995507373
 O         -4.3830884297        2.5346670134       -2.8259143624
 H         -4.2506821736        3.4823535076       -2.6106366403
 H         -3.8147277637        2.3422348247       -3.5895482162
 O          1.4404039425       -1.3646473446        5.6945394615
 H          1.8302834694       -2.2393355785        5.5808931907
 H          0.8281688859       -1.2382244424        4.9347851542
 O          8.8368606327        1.5109555824        2.1081753458
 H          8.5641308430        0.6584144761        1.7077012206
 H          9.0432640659        1.3209050364        3.0428886187
 O          2.5819452729       -3.8356278020        4.8935776943
 H          3.1123435072       -3.3198725187        4.2473760320
 H          2.6076361631       -4.7534753713        4.5615508586
 O          8.3177394893       -0.8560864288        1.0472195104
 H          7.6223922710       -1.4707246781        1.3651433235
 H          9.1877976133       -1.2579808112        1.2553225431
 O         -5.8976580640        5.8738669490        0.3939908260
 H         -6.3457630929        5.6235761519       -0.4241721409
 H         -6.4149687296        5.4839632022        1.1135668905
 O         -7.1462512979        4.1874295327        2.2598281684
 H         -6.3994489423        4.5016435002        2.7943492645
 H         -6.8194701158        3.3073828165        1.9290250113
 O         -2.9080346498        1.9260546464       -5.0454999209
 H         -1.9718635650        2.0240852176       -5.3463972876
 H         -3.2167948635        1.0649047571       -5.3444872496
 O         -5.5315000491       -2.9192007124       -4.9342550445
 H         -6.3423672200       -2.4726005147       -4.6169121819
 H         -5.0700244120       -3.2000093905       -4.1089269126
 O         -6.7915969107        2.0786878131       -1.1363950770
 H         -7.6992949351        2.1148540091       -1.4890153037
 H         -6.3201803150        1.3983405204       -1.6577736482
 O         -5.5971401857        0.0453155765       -2.5237784155
 H         -4.8563361492       -0.3819908172       -2.0705328411
 H         -6.2751289488       -0.6416623647       -2.6507561292
 O         -0.3717221432        1.9910264566       -5.7857407612
 H         -0.0255151185        1.4356489492       -5.0541963595
 H         -0.4320270319        1.3818053988       -6.5405666884
 O         -1.3170191382        3.1147062559        1.3554522372
 H         -0.4118879948        3.0321938599        1.7316707399
 H         -1.2763854174        3.6099785453        0.5303798866
 O         -2.0278626042        5.0620270642        3.1617399354
 H         -1.2195012024        5.3281679338        3.6621495657
 H         -1.7724054972        4.3532237270        2.5352925804
 O         -7.9651100483        0.7471577001       -4.8248868616
 H         -8.9286931287        0.9137868214       -4.8492323778
 H         -7.5715232778        1.5602789773       -4.4378845711
 O          2.2687129272        1.2412227682        5.6345265563
 H          2.1777446323        0.3392962762        5.9727074639
 H          3.0225556634        1.6783734734        6.0728253682
 O          5.8617452495        1.0073974005       -3.5678974356
 H          5.6220733610        0.4356066538       -2.8257860172
 H          5.4674841825        0.6099730778       -4.3671624694
 O          1.5399823246        3.9471529476       -0.3412399794
 H          2.1344347765        4.6677713437       -0.6325492567
 H          0.6434319180        4.3327306924       -0.3244047723
 O          2.5982160015       -3.4654320347       -4.3419858437
 H          1.8712699347       -4.0804278494       -4.2110046241
 H          2.1953667263       -2.6400249470       -4.6945805554
 O          6.3806118651       -3.0165699570       -0.8779859131
 H          7.0823879853       -3.4337590285       -1.4056825605
 H          5.5827131886       -3.0726049631       -1.4294397609
 O          1.3370117171       -1.3480960886       -5.3035163296
 H          0.6449899392       -1.8469446585       -5.7822059972
 H          0.8951008845       -0.7050958203       -4.7176990762
 O         -2.3888177413       -5.6576582546       -3.2686139124
 H         -2.4113804654       -6.5022072722       -2.8036920275
 H         -2.2837222500       -5.0027259461       -2.5398332344
 O          8.4242244680       -3.7473738563        1.0112329824
 H          9.0483095998       -3.7423240212        1.7783263777
 H          8.9830266607       -3.6924801852        0.2186556560
 O         -7.4306920783       -1.5719794084       -3.7062997593
 H         -7.6989946589       -0.7314227239       -4.1520870116
 H         -8.2200829246       -2.0129832206       -3.3702756556
 O          2.5592467676        1.9145996970       -5.2052135683
 H          3.4496264655        2.2861432600       -5.2663392201
 H          2.4623467236        1.3644862098       -6.0097807233
 O         -5.1373091757       -6.1701347307       -2.0173800530
 H         -5.0520408974       -5.8599336604       -1.0821205737
 H         -4.5178306693       -6.8968535044       -2.1002614993
 O         -7.4743993241       -0.4438613522       -0.2492519018
 H         -7.8359992812       -1.2862913664        0.0784919022
 H         -7.9098270920        0.2737017241        0.2617122568
 O          2.5546878898       -6.0468302098        3.3228690550
 H          3.5142969410       -6.1675004230        3.2565167222
 H          2.2959976263       -5.5160560923        2.5406267887
 O         -8.8850865516        1.4939725370        0.8960506869
 H         -8.9050994929        2.3702914697        0.4818696080
 H         -8.7693818509        1.6577111208        1.8468782928
 O          7.9988915099       -4.2933627660       -2.6667585630
 H          8.8638177105       -4.1804757754       -2.2482189814
 H          7.6584499139       -5.1674970614       -2.3606712032
 O          4.4413769238       -5.2869027222       -1.8324998420
 H          3.6509687042       -4.7100284457       -1.7474097205
 H          4.6411475836       -5.2803088018       -2.7918258739
 O          8.1719353209       -0.2733489091       -3.8892786863
 H          7.3905905101        0.3134534431       -3.7942188856
 H          8.4542883680       -0.4496302281       -2.9653337798
 O         -8.9247455992        4.1797551718        0.1524948934
 H         -8.4131913368        4.4137795237        0.9390336342
 H         -8.3998440399        4.4351083583       -0.6235543004
 O         -2.9647068640       -3.9526751933       -5.4996381915
 H         -3.8877762415       -3.7324128785       -5.6646522997
 H         -2.9610292752       -4.5603069223       -4.7478803355
 O          6.6013478544        2.6718183686        3.3588042229
 H          6.7135593272        3.5982106564        3.0450576032
 H          5.6193032645        2.5318771959        3.4293871512
 O          4.8383138072       -0.6876433636       -5.4401800787
 H          5.3963026728       -1.4576945849       -5.2998103387
 H          4.1682771865       -0.6694453584       -4.7201791683
 O          6.6989056165       -2.5103376068       -4.2392573248
 H          7.2761288839       -1.7169375883       -4.2081498282
 H          7.1936677140       -3.1968378177       -3.7554700982
 O          2.7500204773        0.0663644042       -7.1189676503
 H          3.6428438825       -0.1798977377       -6.8404109960
 H          2.1658817051       -0.5115620151       -6.5924638406
 O          0.6511660345        4.0837974277       -4.3545197354
 H         -0.2445199966        4.0220293431       -3.9396595013
 H          0.5856842401        3.4767117962       -5.1092460921
 O          7.1190479326        3.6152615878       -3.6997321580
 H          7.1483616602        2.9745854812       -2.9575250328
 H          6.4612026511        3.2820284912       -4.3307149286
 O         -1.9935373231       -1.4801991095       -5.1246302562
 H         -2.2315834242       -2.3904058523       -5.4032346854
 H         -2.8514157588       -1.0407245995       -4.9499884624
 O          7.6961094701        2.0102955910       -1.6088292750
 H          7.6990339222        2.5983512334       -0.8167162864
 H          7.1664517417        1.2300321334       -1.3944969606
 O          6.9453450461       -6.4046597295       -1.4843797134
 H          7.0871161480       -6.3303145105       -0.5219231718
 H          6.0181353758       -6.1770392927       -1.6298649127
 O         -7.6068805819       -5.0885638929        0.8588128029
 H         -7.7799670344       -4.8358731819        1.7874800117
 H         -8.0133026209       -5.9421972490        0.7200333310
 O         -8.7710832692       -2.7541650956        0.2189043535
 H         -8.2211227285       -3.5397239666        0.3896344592
 H         -9.5277711929       -2.8397403648        0.8405420479
 O         -0.8783000065        4.9501010170       -0.7923843826
 H         -1.2880375399        5.5735674704       -0.1496915285
 H         -0.3678155800        5.5249332054       -1.3999117985
 O         10.0191775415       -3.3510437359       -1.1803210705
 H         10.9481157223       -3.2182661602       -0.9848614882
 H          9.6468188974       -2.4476797161       -1.3314928094
 O         -9.3018269222       -0.1693501756       -2.0452357069
 H         -9.5909344729       -0.9980705242       -2.4387473213
 H         -8.4780385027       -0.3376216321       -1.5194022761
 O        -10.4239973888       -0.4899929108        2.1913357832
 H         -9.4441337590       -0.5310542431        2.1883798947
 H        -10.6780621317       -0.2276299081        1.2780952763
 O         -8.5284125740       -3.9981457622        3.2196821370
 H         -8.3440102775       -3.2630876548        3.8276076658
 H         -9.4255909316       -3.8402514927        2.8981521484
 O          6.7466948155        5.0984027848        2.3141032138
 H          5.8962497734        5.4199596439        1.9550600495
 H          7.2418499722        4.8792668773        1.5028534550
 O        -11.2156821530        0.2030294851       -0.2795951647
 H        -10.4077712598        0.1205732941       -0.8418753540
 H        -11.3440667726        1.1656540635       -0.1555597302
 O          7.3140143004       -6.0481819830        1.1855508490
 H          7.6453116915       -5.1019610768        1.1039820708
 H          8.0690869141       -6.5294333049        1.5168650993
 O         -7.3846858419       -4.7580934737       -2.8433782369
 H         -6.7325852150       -5.4181826584       -2.5597765136
 H         -7.0534287994       -4.4107025538       -3.6771939171
 O          9.0613647500       -0.8770190017       -1.4624805526
 H          9.9701145190       -0.5369176204       -1.4030756796
 H          8.6493207499       -0.7887972089       -0.5724364786
 O         -9.4989977204       -2.9409828016       -2.2989209762
 H         -9.1217401908       -3.7725923635       -2.6055054979
 H         -9.1779340068       -2.8486586996       -1.3648180227
 O         -8.5493369617        2.1906153944        3.5491607150
 H         -8.2251398244        3.0790921336        3.3337970307
 H         -7.7610531688        1.7160735843        3.8958233775
 O         -8.1762597687       -1.7761501241        4.8789040994
 H         -7.5489746909       -1.6615716072        5.6002538591
 H         -8.9126271494       -1.1448739965        5.0444894958
 O          0.2308210350       -7.0748251581       -0.2918520784
 H          1.1804275736       -7.1168646000       -0.0902126577
 H         -0.1022789846       -6.2945840709        0.1954273428
 O         -6.7241092042        3.0056029959       -4.0267959704
 H         -5.9800149298        2.6551980234       -3.4928959770
 H         -6.2857504520        3.3070271641       -4.8431123905
 O          3.4111479746        4.8641682076       -4.7356055386
 H          2.4716157153        4.7088825347       -4.8790958696
 H          3.6444696319        4.3035227008       -3.9599960373
 O          6.5237409756       -3.6554842264        4.2111052968
 H          6.1108916285       -4.4914338162        3.9317588633
 H          5.9674446255       -3.3173781473        4.9434406371
 O          2.0944080479        5.2766816564        2.7494001771
 H          1.7348780300        4.3641778703        2.6246421299
 H          1.6835422736        5.8223847190        2.0440024900
 O         10.2761528238        1.7909147926       -2.0387435277
 H         10.2374098229        1.9486359658       -3.0056357043
 H          9.3156126789        1.7582809409       -1.8066802234
 O         11.0893681206        1.8727154240        0.7884455862
 H         10.8241976691        1.4657181855       -0.0431870133
 H         10.2645181101        1.9018893393        1.3251023639
 O         -4.9303816083        3.4149918545       -6.0257427403
 H         -5.3921890343        2.7177428309       -6.5317461684
 H         -4.1335445944        2.9464371781       -5.7095534000
 O          0.7731476742        6.2474406553       -2.5078727535
 H          1.6410095104        6.2782536864       -2.0714706878
 H          0.8736088641        5.6631578414       -3.2705471168
 O         -9.3297861686        2.4611598906       -2.1612586426
 H        -10.0557016902        2.6917856278       -1.5746958572
 H         -9.3714741077        1.4958295938       -2.2890787477
 O          5.3525776317        5.8021601195       -2.9516462347
 H          6.0068911730        5.1059043969       -3.1250802984
 H          4.8550221331        5.9087208266       -3.7676145197
 O          6.7753509957        5.9320802659       -0.5438663848
 H          7.5524491695        5.8260085726       -1.1345904466
 H          6.1801485641        6.5094714541       -1.0255292996
 O         -1.6117776091        6.7275997571        1.0433779226
 H         -2.3838223831        7.1422597672        0.5891409676
 H         -1.9465451794        6.2595442264        1.8280942264
 O         -5.2780927362        3.1257628116        5.4832268432
 H         -4.3439113115        3.0718479108        5.7385068693
 H         -5.2691872849        3.7700064759        4.7551334870
 O          0.1148971401        5.5356570909        4.6214958453
 H          0.8928993633        5.6277336728        4.0457787049
 H          0.2085926034        4.6690619685        5.0493398320
 O         10.8958963832       -1.5243984857        1.2753513870
 H         11.3382105156       -1.3493480606        0.4323473604
 H         11.2658643068       -0.8873044123        1.9278573900
 O          8.5175220476       -1.7970375019        4.2356905478
 H          7.8882035628       -1.2477078149        3.7296444680
 H          7.9777068890       -2.5405061004        4.5380546819
 O          4.1770214473        4.8634789651        4.5100215836
 H          3.4228505360        5.2169649388        4.0126355930
 H          4.9681526199        5.2291448357        4.1051402306
 O         -0.1859056406       -6.4763928101        3.6317555846
 H          0.7700918784       -6.6115729124        3.5617604522
 H         -0.6086831620       -6.9172493954        2.8934526684
 O          4.8980564457       -2.6831342324        6.1408673580
 H          4.7353821368       -1.7484088418        5.9568681925
 H          4.0574598187       -3.1438725270        6.0207197815
 O         -4.3314052538        5.1316261640       -2.2485629283
 H         -4.0151165238        5.4317596270       -3.1227115035
 H         -5.2974745232        5.2094585633       -2.2270220376
 O          4.9065050103       -4.9137629307       -4.4560403582
 H          5.6145276608       -4.2927929938       -4.6465216102
 H          4.0704638962       -4.4472673905       -4.6208432604
 O          2.9831296927       -6.8028403778        0.0140743422
 H          3.3987498553       -6.4835631508       -0.8049567982
 H          3.5582426837       -7.4753056108        0.3754653239
 O          9.4092056372        2.1661418243       -4.5208454898
 H          9.0135869590        1.2817668470       -4.5552290572
 H          8.6738783144        2.7838865687       -4.3739570241
 O          9.3512002345        0.8057851287        4.6664205260
 H          9.2254784486       -0.1577195162        4.6855432826
 H          8.6649655939        1.1652854926        5.2542549979
 O        -11.3668770360        2.8868984784        0.0779279898
 H        -10.6654276176        3.5542514366        0.0772843133
 H        -11.5393315445        2.7353010698        1.0292052238
 O        -10.0187576117        0.1226159148        4.8865362704
 H         -9.5743257161        0.9555686608        4.6840181206
 H        -10.4620471792       -0.1422771552        4.0695503761
 O          1.0344059214        6.6410543144        0.7434872861
 H          1.4023549052        7.4321199636        0.3542331213
 H          0.0800580150        6.7982473932        0.8833126116
 O          5.1434257053        3.0264483296       -5.6290563620
 H          5.3830105694        2.9408298843       -6.5497149724
 H          4.6140350196        3.8452735406       -5.5236823206
 O         -3.2417252717        5.3173355200       -4.6794384678
 H         -2.6360371024        4.6268049635       -4.3512844406
 H         -3.8344590001        4.8907117347       -5.3103647801
 O        -10.8397972841       -3.0954280289        1.8513926463
 H        -10.8557984121       -2.1661379923        2.1650212369
 H        -11.4520056619       -3.1247567853        1.0956081232
 O        -11.8370184440       -2.5341618927       -0.6334642156
 H        -11.7520583099       -1.5865093416       -0.4546156207
 H        -11.1628349500       -2.7520976181       -1.2918802192
 O        -11.3027551841        2.1729581184        2.6862830673
 H        -10.4898227506        2.4677653672        3.1106043960
 H        -11.1976905330        1.2173478244        2.5685444677
 O         -5.9592368294       -5.1464311733        3.0568836143
 H         -6.6770410647       -4.8849994938        3.6400998144
 H         -5.1528494165       -5.1512574786        3.5813454317
 O         -5.9874864912        1.0362708433       -6.7216075357
 H         -6.8301730643        0.9223624983       -6.2529602622
 H         -5.3634231700        0.4773757518       -6.2336738647
 O         -0.8523848639       -0.2087229245       -7.2272739521
 H         -0.3377776094       -0.8455931567       -7.7203722202
 H         -1.2862300706       -0.7105840180       -6.5096626600
 O          4.3679641067        2.7302448178        6.5159137501
 H          5.2994057165        2.4678540693        6.4653291967
 H          4.2999929583        3.5905496736        6.0873514832
 O         -0.5184032035       -1.3796227227        7.5125788802
 H          0.2915286623       -1.3319616136        6.9614469707
 H         -0.9433138283       -0.5232573787        7.4521880927
 O          6.9470090832        1.6945617237        5.8251778706
 H          6.8530838304        2.1274900425        4.9482841788
 H          6.4202835235        0.8875544247        5.7948784932
 O          8.1606752374        3.6228369907        0.4478440977
 H          8.9503449773        4.0560793861        0.0820671392
 H          8.4742490277        3.0821740815        1.1916702139
 O         10.5371788054        4.1489580841       -0.7619043671
 H         10.5258712421        3.3135779722       -1.2787105414
 H         11.0420041173        3.9581625413        0.0350943619
 O         11.7666274066       -0.9926996147       -1.3066461936
 H         11.6530677365       -1.2732174068       -2.2301865520
 H         12.3592569267       -0.2140123562       -1.3290257308
 O         10.7019749336       -1.7577841716       -3.7468618321
 H         10.2554832969       -2.6026226957       -3.6576307164
 H         10.0427593891       -1.1340305372       -4.0704331496
 O         -2.4848771870       -7.3155853929       -1.0338585878
 H         -2.8734758529       -7.0401742579       -0.1987870192
 H         -1.5465942156       -7.4552193887       -0.8472934092
 O         -2.6035741386        3.5407794748        5.4428293108
 H         -1.8837715496        3.7424630878        6.0400884595
 H         -2.4809392825        4.1134767905        4.6655731728
 O         -0.1321309018       -3.1287298369       -6.6005855993
 H          0.4760221388       -3.6007751046       -7.1659097003
 H         -0.3319958991       -3.7309161202       -5.8554534052
 O          1.2333547102       -6.1615746190       -2.6540365898
 H          0.6320391687       -5.7821611058       -3.3135530621
 H          0.7069359105       -6.6218667360       -1.9776576003
 O         -2.0317689982        6.9573511187       -2.6673019258
 H         -1.0713366191        6.9984496617       -2.7096375956
 H         -2.3352684318        6.6201972481       -3.5163283738
 O          8.6923512365        5.5036771977       -2.3292483387
 H          9.4525252920        5.1096943353       -1.8835895515
 H          8.3168303775        4.8381454712       -2.9186995469
 O         11.7202853789        0.3282904155        2.9874281353
 H         11.7177779375        1.0477024746        2.3359728661
 H         11.0926614531        0.5726146506        3.6773594349
 O         -3.6259885122        7.5410313529       -0.4159353620
 H         -4.4272386234        7.0206270463       -0.2840784134
 H         -3.2458952336        7.3060601783       -1.2775588855
 O        -10.5458301716        1.3478876123       -4.5140145960
 H        -11.0863127689        0.7060379589       -4.0295109521
 H        -10.3758900945        2.0813891898       -3.9113412954
 O          9.5279822319        4.1007175188        2.9082428181
 H          9.4232828374        3.5334268820        3.6733237040
 H          8.7907194050        4.7179193364        2.9159038628
 O         12.9561469254        1.3956671251       -1.3177723848
 H         12.8623389585        1.7267832587       -0.4188704734
 H         12.1982057820        1.7383708246       -1.8102943235
 O        -12.0142906734       -0.3955442285       -2.8914743984
 H        -12.2870712895       -1.3127369065       -2.8473425279
 H        -12.0340132035       -0.0579389430       -1.9831483257
 O         10.1830882268       -3.5350398076        2.9380087183
 H          9.7016654489       -2.9394334890        3.5402418702
 H         10.7472064529       -2.9491372313        2.4109498139
