  147

 H         -0.5425054112       -1.1597996585        0.9180873603
 C         -0.6112510051       -0.5412956740        0.0100749183
 H         -0.5391308395       -1.1969144470       -0.8712436599
 C          0.5103658647        0.5037878336       -0.0094871840
 H          0.3911098457        1.1518924072        0.8600966292
 H          0.3944399221        1.1152669956       -0.9056411628
 O         -1.7891825170        0.2100258093       -0.0077307039
 H         -2.5646581753       -0.3620747641        0.0026734603
 N          1.8637421187       -0.1172780950        0.0059475208
 H          1.9871272141       -0.7237037739       -0.8163106223
 H          1.9839787968       -0.6890763205        0.8531041603
 H          2.5930828886        0.6072400318       -0.0077051379
 O          3.9635287431       -3.0309682031        2.4470506736
 H          4.4392850026       -2.4884139129        3.0838225235
 H          3.0443208412       -2.6866867865        2.4891491115
 O          1.6620362788       -1.8111264512        2.0355233415
 H          1.2244241076       -2.4873182045        1.4758828189
 H          1.0019884631       -1.5580625980        2.7026988480
 O         -0.2384295952       -0.5407611449        3.5277175840
 H         -0.8465147538       -1.1867846454        3.8932770086
 H         -0.7919146637        0.1798490996        3.1510324857
 O         -2.6722591840       -2.3418921710        2.9291749005
 H         -3.4373972454       -2.9446720970        2.8439117343
 H         -3.0569064349       -1.4477389125        2.8400932038
 O          1.6208389601       -2.0122633269       -2.0207639259
 H          1.2028758548       -2.5744253833       -1.3296443603
 H          0.8963871140       -1.6303785832       -2.5574025909
 O         -0.3523158079       -0.7685601083       -3.3791126917
 H         -1.0071875186       -0.0679154243       -3.1477276381
 H         -0.8841238225       -1.5746271161       -3.4410412788
 O          0.6538738743       -3.3537438843        0.0571758184
 H          1.2442052049       -4.1096501694        0.2579731657
 H         -0.2715443647       -3.6163016039        0.2304690705
 O          2.8359252790        2.2586681405        1.1310870445
 H          2.5735901182        1.7981407079        1.9454442172
 H          3.6785235727        2.7015428033        1.3368283764
 O         -1.5857363855        1.5243842753        2.4998227161
 H         -1.0069820568        2.2889502764        2.6409746083
 H         -1.7307070898        1.4482163409        1.5404845771
 O         -2.0110200972       -3.5884851487        0.5083563548
 H         -2.0672414330       -3.2243665869        1.4080432753
 H         -2.5410292451       -2.9785422393       -0.0236530253
 O         -3.6398522406       -1.6874645592       -0.7073751521
 H         -4.4355634203       -1.8297706602       -0.1534030222
 H         -3.9577179936       -1.0779208698       -1.4104623025
 O         -2.0403311896        1.1291515188       -2.5823599748
 H         -1.6108929403        1.9915725548       -2.7413596458
 H         -2.0064065141        0.9955354514       -1.6168610294
 O          0.5204133500        3.2610029245        2.8467150943
 H          0.6434897694        3.9953304420        3.4485270134
 H          1.1303721633        2.5588835925        3.1316560147
 O         -3.8710151856        0.0866516564        2.6445278582
 H         -4.0159937331        0.3419340170        1.7017807270
 H         -3.2816911736        0.7759767929        2.9801343639
 O          1.6229778667        1.2787131755       -3.0580585094
 H          0.9294921284        0.6630023909       -3.3311627410
 H          2.4509417007        0.8340139552       -3.2862691225
 O         -2.2805605868        2.9682462782        0.0513093804
 H         -2.7226983920        3.3454806127        0.8380415889
 H         -1.3927515798        3.3632212017        0.0116919931
 O          0.2361169543        3.9578973235        0.0819753895
 H          0.4679825324        3.8000989522        1.0081187159
 H          1.0717389260        3.8840388272       -0.4148224960
 O         -4.3856287810        1.0487639929        0.2310686498
 H         -5.2952894433        1.3847378001        0.3839068007
 H         -3.7808914917        1.8005589119        0.2078107501
 O          2.4585441185        3.2820543800       -1.3513498411
 H          2.6745727420        2.8360524719       -0.5118168041
 H          2.2114388130        2.5780790025       -1.9722910660
 O         -0.5316547029        3.3446435530       -2.7514821285
 H         -0.3463039613        3.7969687747       -1.9218299285
 H          0.3072791713        3.0062167909       -3.0818025541
 O          4.1381348801       -1.8655453602        0.0381997581
 H          3.9164591528       -2.5761568601       -0.5924515715
 H          4.1176453351       -2.2753332873        0.9282345578
 O         -5.9889394624       -1.9403897859        0.5868732854
 H         -6.5301684776       -1.6129598053       -0.1479171059
 H         -6.1993296213       -1.3599486768        1.3431833255
 O         -4.6090611896        0.2120007605       -2.3168999343
 H         -3.8883381593        0.5710844065       -2.8546432807
 H         -4.5778332176        0.7520219825       -1.4990873601
 O         -7.1249080220       -0.4707652288       -1.4893585299
 H         -6.2990045767       -0.2426760865       -1.9559787658
 H         -7.8010852828       -0.5828519502       -2.1580569090
 O          4.1788311348        0.8944040061       -0.8899608573
 H          4.7444735291        1.6465653861       -1.1393660332
 H          4.1242705535        0.3288064959       -1.6853308606
 O         -1.8322324682       -2.9212128485       -2.5495052264
 H         -1.7006978756       -3.8156130075       -2.2315578437
 H         -2.5535684455       -2.5433349377       -2.0279154732
 O          2.7315690745       -4.9378054200        0.5762087191
 H          3.2425483743       -4.5494766398        1.2967855166
 H          3.2463627234       -4.8185887791       -0.2314533053
 O          4.4040548004       -0.4208458140        3.5591469715
 H          4.8171348776       -0.1762843002        2.7039628603
 H          4.9596162476       -0.0470695850        4.2438779579
 O         -7.0092730828        1.4393539761        0.5342752651
 H         -7.2476032300        0.8177545477       -0.1732975736
 H         -7.0908375411        0.9540091983        1.3684069892
 O          2.0673873489        1.0034677480        3.4219340987
 H          2.8645783657        0.4515146570        3.5485679405
 H          1.3155306870        0.4115243847        3.5760765466
 O          5.5730204712        0.3665039512        1.2805336315
 H          5.0017009538        0.3648760304        0.4732819618
 H          6.4809680396        0.2993427010        0.9650256271
 O          6.6216124404       -1.5881773203       -0.6732944303
 H          7.1251185456       -2.2339012835       -0.1776976230
 H          5.6805875809       -1.6211728942       -0.3274816215
 O         -5.8100775424        3.9498292142        0.2354706965
 H         -6.4929325108        3.2722867047        0.3186701457
 H         -5.3531471642        3.7744243094       -0.6082323812
 O         -6.5159305526       -0.2569685514        2.6826689653
 H         -5.5674887592       -0.0719970924        2.8611546963
 H         -6.8922977697       -0.6070437616        3.4898823473
 O         -4.6603982871       -3.9166808828        2.0329953389
 H         -5.2637462905       -3.3581889031        1.5198887174
 H         -4.1887379396       -4.4648555926        1.4004780018
 O          3.6900497080       -0.5684614857       -3.0769335621
 H          4.4786974752       -1.1228692184       -3.2258921788
 H          2.9959508912       -1.1777398068       -2.7832119678
 O         -4.1880896787        3.2060074795       -1.8482762521
 H         -3.3740972645        3.1769276148       -1.3064150601
 H         -3.9711261593        3.6946509588       -2.6415884112
 O          5.4420046034        3.0778490016        1.3533298033
 H          5.5080416484        2.1022096486        1.3974911092
 H          5.4349575730        3.3146809954        0.4137726174
 O          5.1910173417        3.3943083909       -1.4116032633
 H          5.6498971966        3.2999975599       -2.2481811469
 H          4.2620880809        3.6324769006       -1.5891743219
 O          5.7913815102       -2.2557239616       -3.1159028929
 H          6.1795712888       -2.0429677217       -2.2359449292
 H          6.4156637765       -1.9300147314       -3.7638564055
 O          3.7780576313       -3.7846022575       -1.8484081017
 H          4.4925887047       -3.5492630536       -2.4549206823
 H          2.9613326786       -3.4378438959       -2.2326170549
 O          6.7940306823        0.9853585704       -1.9474947783
 H          6.7850374012        0.0712244381       -1.6409466918
 H          7.2648377230        1.4631771796       -1.2528648009
 O          7.8791733833        1.8161254335        0.5233974676
 H          8.8071929155        2.0027282742        0.6568661453
 H          7.3730679299        2.5387925312        0.9238879826
 O         -3.9340222871        3.5559706057        2.0539028051
 H         -3.9203833312        4.2620831795        2.6974473686
 H         -4.6945138864        3.7470891086        1.4490030988
 O         -0.1868429741       -3.5754026732        2.9997829992
 H         -0.2044440009       -4.5196977504        3.1477155933
 H         -1.0798210936       -3.2438604640        3.1641207100
