  101

 H          0.4630927076        1.1941025328        0.8323452958
 C          0.5529035761        0.5095402430       -0.0251092077
 H          0.4633421182        1.0989800596       -0.9466436098
 C         -0.5779259333       -0.5149488604        0.0205351875
 H         -0.4518492549       -1.1270258237        0.9278134320
 H         -0.4840892691       -1.1748678656       -0.8448928486
 N         -1.8603253885        0.1647702475       -0.0623309409
 H         -2.6131021664       -0.5138473280       -0.0751527666
 H         -1.9956541839        0.7570092262        0.7508171932
 O          1.7808081027       -0.1833448059        0.0209869107
 H          2.5006908393        0.4507195084       -0.0567171281
 O          4.1014943196       -0.4553422549       -2.5400551825
 H          4.0046481156       -1.1856554738       -1.8951284444
 H          3.2933842727       -0.4841454032       -3.0667695455
 O         -1.7874649848        1.8882067903       -2.1301954019
 H         -0.8695408094        2.0938733732       -2.3931117260
 H         -1.7506655837        1.2398689407       -1.3706675108
 O          1.3378600540       -0.9360668660       -2.8062462175
 H          0.4071969296       -0.8114816601       -3.0805135217
 H          1.4021436951       -0.5859393441       -1.9061302858
 O         -1.3524148483       -0.6841112366       -3.2402622801
 H         -1.5766136788        0.2498281258       -3.1030586984
 H         -2.0695691207       -1.1802116590       -2.8280468801
 O          3.8631291078        1.3816382281       -0.6146491420
 H          3.9445245073        0.8934606016       -1.4625354560
 H          4.4206528891        0.8818947532        0.0069260848
 O          3.4801250145       -2.2512222805       -0.5440402359
 H          3.0879289247       -2.9916317647       -1.0243411871
 H          2.7286073530       -1.7555685651       -0.1774941768
 O          0.7868782213        2.4470441783       -2.7345135724
 H          0.9987056873        2.9224729117       -3.5371196982
 H          1.2427330893        2.9223877971       -1.9970977700
 O         -3.7371524731       -1.4321056364       -1.6682092931
 H         -3.9626148593       -0.4921425969       -1.8177153303
 H         -4.4796347138       -1.7632041476       -1.1417254263
 O          5.3225802523       -0.5997513662        0.7137194211
 H          6.0042865165       -0.4334455864        0.0121681404
 H          4.8190976330       -1.3555116597        0.3747514163
 O         -4.4200723738        1.2339791265       -1.7093693576
 H         -3.7162568626        1.6331849727       -2.2350988332
 H         -4.2356423433        1.5392023039       -0.7953768133
 O         -3.9277014603        2.2011014829        0.7733590678
 H         -4.6812082973        2.7275145005        1.0505448629
 H         -3.1927543526        2.8331056632        0.5476487263
 O         -1.9929750328        3.7368783234       -0.0777141904
 H         -1.1683531427        3.7201715627        0.4261126589
 H         -1.8422345726        3.2414079771       -0.9048099737
 O          1.9866074160        3.5472055086       -0.6458470630
 H          2.6628008577        2.8983901583       -0.4055916480
 H          1.4003847346        3.6228440505        0.1191873519
 O         -1.4838560424        1.3771056150        2.6710200756
 H         -0.9828814776        0.5903727201        2.9628423350
 H         -2.2901160622        1.4033455054        3.1876926952
 O          0.4549204209       -3.8348392215        0.1753980969
 H          0.8574139008       -3.7566113908       -0.7052446630
 H         -0.5078226147       -3.7069245638        0.0581776266
 O          2.7203637080        2.1384102393        2.0801519788
 H          3.6406455492        2.4113588518        1.9970939816
 H          2.7631066223        1.2012902669        2.3527701300
 O          0.2656081697        3.3459053483        1.6816537698
 H         -0.3794320362        2.7725195327        2.1245625847
 H          1.1347936019        3.0375146422        1.9899962707
 O          3.2108884443       -0.4689514082        2.6918714871
 H          4.0010842058       -0.6080259332        2.1586893735
 H          2.5669929762       -1.1262659923        2.3796348934
 O         -2.1788375504       -3.2882705440       -0.0726653019
 H         -2.3681412627       -2.9303072831        0.8113444153
 H         -2.6322093553       -2.7206341938       -0.7086542729
 O         -0.1106961269       -0.8112719345        3.5741269948
 H          0.5309063228       -0.4489274514        4.1881245602
 H          0.4045720140       -1.4159906493        2.9941407014
 O         -2.5203114452       -2.0182448118        2.3818650446
 H         -1.7992564461       -1.7096609149        2.9390441225
 H         -3.2237760962       -1.3497404153        2.4315854129
 O         -4.5160067187       -0.1183965415        2.0654465845
 H         -4.0934596360        0.6064145427        1.5685413027
 H         -4.9141699205       -0.7134765751        1.3976295211
 O          1.4341205311       -2.5224239636        2.1782724795
 H          1.0495408573       -2.9661388613        1.3686950834
 H          1.7014654849       -3.2429703494        2.7504436151
 O          6.7505571960        0.1141230675       -1.3757017020
 H          6.1209849832       -0.0379446598       -2.0900636976
 H          6.7767348373        1.0831812302       -1.2289336743
 O         -5.7935747587       -1.5953509339        0.1690264213
 H         -6.2996066757       -0.8299506385       -0.2251258587
 H         -6.4297035395       -2.2800416330        0.3728767455
 O         -6.9237069298        0.5829969468       -0.7321610499
 H         -6.8767596061        1.1253753605        0.0770808013
 H         -6.2163761962        0.9063355681       -1.3107325045
 O          6.3246212044        2.6951781186       -0.6284341272
 H          5.3863190713        2.6979861173       -0.8629253562
 H          6.3335379405        2.6396357416        0.3367397415
 O          5.6310316881        1.8632539400        2.0022029603
 H          5.9838181865        1.8725826366        2.8918148762
 H          5.6229070889        0.9354916592        1.7194231030
 O         -6.5943645164        1.6341575433        1.7965170550
 H         -5.9069691863        0.9974078548        2.0835422925
 H         -7.3820921377        1.4300390075        2.2989260671
 O          1.6853336000       -3.4927665096       -2.2642821385
 H          1.5461978210       -2.5554835634       -2.5541144163
 H          1.3332207161       -4.0469442933       -2.9595045786
