 xtb: 6.5.1 (579679a)
          10272221393D

  3  2  0     0  0            999 V2000
    0.0196    0.0424   -0.0433 o   0  0  0  0  0  0  0  0  0  0  0  0
    0.4185   -0.1225    0.8133 h   0  0  0  0  0  0  0  0  0  0  0  0
   -0.7304   -0.5499   -0.1261 h   0  0  0  0  0  0  0  0  0  0  0  0
  1  2  1  0  0  0  0
  1  3  1  0  0  0  0
M  END
