  461

 H          0.4630927076        1.1941025331        0.8323452975
 C          0.5529035763        0.5095402436       -0.0251092089
 H          0.4633421182        1.0989800593       -0.9466436109
 C         -0.5779259335       -0.5149488594        0.0205351899
 H         -0.4518492549       -1.1270258233        0.9278134316
 H         -0.4840892691       -1.1748678646       -0.8448928501
 N         -1.8603253889        0.1647702458       -0.0623309416
 H         -2.6131021661       -0.5138473276       -0.0751527665
 H         -1.9956541842        0.7570092256        0.7508171948
 O          1.7808081030       -0.1833448057        0.0209869104
 H          2.5006908393        0.4507195085       -0.0567171281
 O          4.4117411740       -1.4652234301       -0.2747993311
 H          3.7919035309       -1.7834813455       -0.9588637208
 H          5.2240919092       -1.1728157156       -0.7285594816
 O          1.7256915332        1.7763364840       -3.3929851443
 H          1.4278799685        2.3759547261       -2.6857976152
 H          1.0779811487        1.0317117994       -3.4379026234
 O         -0.0456176997       -0.1709492349       -3.4594925486
 H         -0.1743972016       -0.3952560063       -4.4091658513
 H         -0.8779898721        0.2569581588       -3.1538468517
 O          2.3161410382       -2.0596000817       -1.8393390788
 H          1.7758628550       -2.8451403214       -1.6733184648
 H          1.8869941675       -1.3561749373       -1.3222565515
 O          0.9741869763       -4.1886952147       -0.6421965463
 H          1.6212963125       -4.2448452190        0.0724713646
 H          0.3610382910       -4.9454518428       -0.5102772321
 O         -1.7818803384       -3.4937139536       -0.6717899371
 H         -1.0433891527       -3.2016196710       -1.2404080555
 H         -1.3764768173       -3.9427279443        0.0974882925
 O         -3.8147008425       -1.8761843623       -1.4216672195
 H         -3.1811470331       -2.5214464908       -1.0666955542
 H         -3.4096611819       -1.5546591396       -2.2633005658
 O          3.6813030721        0.0986719040       -2.9084446410
 H          3.2349904772       -0.7538498316       -2.8046288662
 H          3.0685912390        0.6719910627       -3.4092326186
 O         -2.1198505054        1.1973965191       -2.4510325653
 H         -2.0156954109        0.8927833048       -1.5002295138
 H         -2.9716664504        0.8335199780       -2.7574660548
 O         -2.7686288906       -2.2146960967        2.0418708545
 H         -2.4064919841       -2.6311224672        1.2577919805
 H         -2.2847822223       -2.5532933973        2.8191050189
 O         -3.0404914085        0.3646960335        2.7117562165
 H         -3.9944046012        0.5290163156        2.6391187100
 H         -2.9093677553       -0.5502417702        2.4002978491
 O         -3.9915315961        2.3287046842        0.3329730246
 H         -4.5246622959        3.0605937461        0.6971171578
 H         -3.0664439483        2.5995486026        0.4823878669
 O          3.6539702067        1.6460592655       -0.7697389898
 H          4.5903191176        1.9111378241       -0.6542318180
 H          3.6702755003        1.0469309764       -1.5516853095
 O          3.9277118472        3.8621415496       -2.3875558868
 H          3.2510677751        4.3354464270       -2.9179064751
 H          3.4933963064        3.1569810545       -1.8854496468
 O         -4.8598763473       -0.2759040848        0.5007711345
 H         -4.5771700732        0.6388540375        0.3502012425
 H         -4.5974328312       -0.8090462682       -0.2649540760
 O          2.5034970200       -2.1463764176        1.7777750368
 H          2.8270483213       -2.9874744349        1.4103170034
 H          2.2605436790       -1.5590982590        1.0449448653
 O          0.6178586576        3.5747777593       -1.7727650832
 H         -0.1970445935        3.4796884876       -2.3012794031
 H          0.7610343074        4.5423844776       -1.7427743672
 O          0.9832308020        3.5898933725        0.8952869201
 H          1.1204597222        3.3718946426       -0.0365001637
 H          1.4507664088        2.9401662837        1.4646156246
 O         -1.6672683035        3.6298024009        0.5727070764
 H         -0.7638225977        3.2908749470        0.7155312624
 H         -1.8189670828        4.2151659863        1.3356082642
 O         -0.8028176917        2.1915936527        2.6647893967
 H         -1.7240643658        2.4067479553        2.9000171296
 H         -0.2374019518        2.8417952386        3.1161358708
 O         -0.3807609030        0.0996499669        4.1113583072
 H         -1.2024509609       -0.0038841496        4.6145052122
 H         -0.5647353069        0.8012321851        3.4367698404
 O          0.0035134468       -2.1089142190        2.6015262317
 H         -0.1290913905       -1.3484641007        3.1969961075
 H          0.9590865712       -2.2074082650        2.4530966425
 O         -0.8001973674       -4.3893812880        1.6647780095
 H         -0.5407545884       -3.5354223649        2.0789816857
 H         -0.0657882466       -4.9825070350        1.8743527076
 O         -5.5072462636        1.2938207069        3.2911543912
 H         -6.1447742756        0.9300831448        2.6400797049
 H         -5.6416541199        0.7452449642        4.0867487060
 O         -7.1630783626       -0.0391949093        1.6979358209
 H         -7.3691347967       -0.7213556340        2.3678444680
 H         -6.3520858757       -0.3345334117        1.2224766031
 O          4.1862623009        0.1331158191        1.8199741199
 H          4.1408806225       -0.4029853027        1.0012668296
 H          4.2697083183       -0.5319478033        2.5387634974
 O          6.8433668341       -0.7207357082       -1.0792296758
 H          7.5115096852       -0.1711743720       -0.6282876374
 H          6.6730789254       -0.3080683572       -1.9458675379
 O          2.1781753587       -0.4712192389        3.9366061801
 H          1.9078946453        0.3148438428        3.4280940712
 H          2.4246124302       -1.1376715560        3.2775623412
 O          2.2061527881        1.8254785935        2.4631425996
 H          2.9502458829        1.3080520177        2.1019856543
 H          2.5923012022        2.3655937328        3.1906834595
 O          6.5964952908        1.0024842880        1.5493804003
 H          5.6568357912        0.7057665296        1.6349031632
 H          6.8489887609        1.2778626785        2.4502933698
 O          6.1040157866        2.6849197682       -0.4112765443
 H          6.3816679377        2.0976555994        0.3322093939
 H          5.9829650501        3.5739573869       -0.0281975693
 O          3.8327077485        3.8054990719        1.0536070315
 H          3.5622960881        3.0352698789        0.5417210051
 H          3.7058498500        4.5855254366        0.4758579152
 O          3.3107727716       -4.5122585154        0.7667905014
 H          3.9064721957       -4.8051802388        1.4921070293
 H          3.8508402043       -4.4633920430       -0.0513049262
 O          4.6181030537       -1.8937023882        3.5083758031
 H          5.0928593951       -2.4417084686        2.8476806743
 H          3.8654039462       -2.4452590392        3.7969874019
 O          5.7296424968       -3.0200359239        1.3803248850
 H          6.5408781654       -2.4803559546        1.5156639760
 H          5.1697881166       -2.5102490462        0.7527454087
 O         -0.2099167208       -2.7650167610       -2.8192539382
 H         -0.1653295811       -1.7984281650       -2.9989785031
 H         -0.9061931239       -3.1085961406       -3.3980887672
 O          3.6653072461        0.7331927316        5.7762310988
 H          3.1942805484        0.1623877580        5.1296565849
 H          4.4985187974        0.2874662608        5.9595998257
 O         -4.5652827994        0.4360156465       -3.2527422576
 H         -4.8811858154        1.2819249055       -3.6217230608
 H         -5.2199329280        0.1274948938       -2.5940700571
 O         -4.0465601160        3.6384275598       -1.9816214771
 H         -3.9250131732        2.9486907935       -1.2968103637
 H         -4.8462004391        4.1190352359       -1.6963760886
 O         -4.9520649971       -4.0331597871        0.8389555055
 H         -4.5758115553       -4.5454818874        0.1000216938
 H         -5.7184767244       -4.5888059253        1.1184371003
 O         -5.3001334871       -1.8376125488        2.9225632305
 H         -5.8707854916       -2.6235064353        3.0100838261
 H         -4.6300714195       -2.0437433051        2.2555819937
 O         -2.8615720910        0.1945856494        5.3043690349
 H         -2.9612745452        0.3401600590        4.3214956343
 H         -3.3264087040       -0.6570482677        5.4571926528
 O         -7.0075833812       -2.3918429613        0.0531229819
 H         -6.7999483981       -1.6633235524       -0.5592829595
 H         -6.1678094188       -2.8379281866        0.2728997390
 O          7.9100388276       -3.1746443273       -1.4026355811
 H          7.4199678612       -3.8961926414       -0.9497346355
 H          7.4152899848       -2.3357468393       -1.2669306762
 O          7.7411501462       -1.3892923291        1.7604358093
 H          7.4287484335       -0.4848701661        1.5396472059
 H          8.5061566068       -1.6168530880        1.1973703720
 O         -3.2747726935        3.1825688711        3.3024901365
 H         -3.5254165845        3.0350178029        4.2434350650
 H         -3.8775868257        2.6310584888        2.7931996092
 O         -7.8228445337        2.8013501140        1.7032507580
 H         -7.2764592947        3.4311369101        2.2010718424
 H         -8.0917062444        2.1420995312        2.3735930968
 O         -3.8570210947        2.6085086155        5.8266972381
 H         -3.5883197283        1.6659592937        5.7585444103
 H         -3.0725618089        3.0497249662        6.1917469445
 O          0.5755550702        4.0937022762        4.0830138103
 H          0.9741594550        3.4593515202        4.6982050723
 H          1.3288314745        4.5958812367        3.7050404416
 O         -3.2173865773       -5.1127142138        2.6263311739
 H         -2.3321352859       -4.7742241600        2.3878296749
 H         -3.8476021998       -4.6396287679        2.0438863480
 O         -5.5890799876       -0.9455552040       -5.3355881347
 H         -5.4357319644       -1.9157731775       -5.3418208685
 H         -5.1220480419       -0.6129715150       -4.5408245484
 O          6.2505940964        0.2952396583       -3.5130366192
 H          6.2524313046        1.2711679038       -3.6351053356
 H          5.3023249494        0.0842993566       -3.3540829469
 O          5.9578279656        2.8835599834       -3.8144472321
 H          6.6322136918        3.5958890077       -3.7564403301
 H          5.2267310736        3.1841867350       -3.2322326310
 O          4.5176417636       -4.6294698724       -1.6239365120
 H          4.6491261163       -3.7261393189       -2.0087711914
 H          3.6810837807       -4.9954507051       -2.0151828980
 O          5.0859244061       -2.3793885110       -2.8397599739
 H          5.9476769094       -2.5482952379       -3.2542009737
 H          4.4646064485       -2.2342858793       -3.5805893827
 O          1.4173046015       -5.4603869097        2.8579142025
 H          2.0630002328       -6.1492317693        2.6980325031
 H          1.8842094088       -4.7503628232        3.3510328798
 O         -2.0235290566        5.3962804153       -1.3118373092
 H         -1.7545149708        4.6700244295       -0.7018481285
 H         -2.7535069685        5.0094752937       -1.8210735094
 O         -4.0012540867       -2.1757107392        5.1960749173
 H         -3.1166492737       -2.5577364227        4.9909823363
 H         -4.4411751322       -2.0483988222        4.3133187997
 O         -1.6665646975       -3.1208062195        4.4430471786
 H         -0.8634818915       -2.7134470959        4.8245580949
 H         -1.4939146217       -4.0826870442        4.4944705459
 O          8.8181938307       -0.7110553789       -3.6159971518
 H          8.8076191998       -1.5700847787       -4.0481959428
 H          7.8845248690       -0.4435912238       -3.5647040989
 O         -2.6107737222       -1.4013847289       -3.6920151171
 H         -2.8447803990       -0.8412858088       -4.4521714520
 H         -2.5780251920       -2.3058725512       -4.0414054224
 O         -2.2110112484       -3.9039323371       -4.5627865774
 H         -2.1284265739       -4.7069524762       -4.0232337112
 H         -1.5336611170       -3.9232046963       -5.2868206666
 O         -6.6058214481       -0.3941416897       -1.7584991478
 H         -6.6747049304        0.4282459511       -1.2321665145
 H         -7.1843160127       -0.2826427017       -2.5334754216
 O          1.7457119264       -3.7485725304       -4.4448711481
 H          2.4302180032       -3.1033782830       -4.6969310388
 H          1.1543379171       -3.2936405861       -3.8085493618
 O         -2.0682898646       -5.5465863993       -2.4214621251
 H         -2.0385037303       -4.7662117075       -1.8273799045
 H         -1.4168826245       -6.1470388894       -2.0317460237
 O          3.6412028055       -1.9330078858       -5.0592926879
 H          4.4828603385       -1.8244365570       -5.5462856689
 H          3.1423037846       -1.1077316339       -5.2432111668
 O          3.4289008366        3.0570550328        4.4505023526
 H          4.2807712627        3.3361857801        4.0993729813
 H          3.5974478066        2.2906846665        5.0335790987
 O          5.7877957367        3.5224048390        2.9687382539
 H          6.6650288505        3.5898397277        2.5578194191
 H          5.1464878854        3.5719996380        2.2335540541
 O         -8.8503003252       -3.5655689649        1.7023156435
 H         -8.2286482194       -2.9424991964        1.2921429131
 H         -9.7124683141       -3.3827527294        1.3200092241
 O          8.5684606935        3.1285949862       -1.2159603623
 H          8.8213869812        2.7288595086       -2.0759970357
 H          7.5952088207        2.9927282206       -1.1185890552
 O         -9.3973094872        0.0785509544        0.3862327715
 H         -9.9530495093        0.5195309781        1.0674309721
 H         -8.5006228308        0.0064097546        0.8030430152
 O          2.6141866967       -3.5626054145        4.3693293647
 H          3.3056467851       -3.8527517583        4.9922128089
 H          1.8948744664       -3.1830008514        4.9006899520
 O          8.8577079897        0.7216028145        0.0151214232
 H          9.0504586413        0.8624122158        0.9653333339
 H          8.8443239755        1.6077204360       -0.3879072059
 O          2.2839592911       -5.5518434174       -2.5647711677
 H          1.6836351021       -5.1123656530       -1.9260779645
 H          2.1166040495       -5.0841758943       -3.4061707447
 O         -5.7988025030       -3.2406562988       -2.5052746713
 H         -5.0917671404       -2.7362970766       -2.0401847298
 H         -6.5030026853       -2.6065165419       -2.7078837100
 O        -10.7753662041        1.3983622279        2.2504366183
 H        -10.7967713505        2.2147793352        1.7091249079
 H        -10.1467064252        1.5663673391        2.9688339107
 O          7.0616168336        1.3757987247        4.1785245327
 H          6.6384624208        0.6687786808        4.7096355048
 H          6.5401609173        2.1794876068        4.2698675721
 O          9.7562920424       -2.5007190173        0.3610750140
 H         10.3088938308       -1.9037773299       -0.1800321247
 H          9.1473173188       -2.8860162862       -0.3104640142
 O          6.0431966250       -0.7882675767        5.4282128872
 H          6.9384767231       -1.1460080401        5.3261822629
 H          5.5213442245       -1.2057678136        4.7014414493
 O          9.3569922157        1.1580272731        2.6356280415
 H          9.9284252704        0.3728883553        2.7673365209
 H          8.7013187647        1.1377700409        3.3476014495
 O         -6.9756578654        2.0128727572       -0.6800220061
 H         -7.8535607524        1.9551179739       -1.1082325271
 H         -7.1584256097        2.1252013769        0.2768115877
 O         -9.4169651953        1.6539129084       -1.7127838821
 H         -9.4832124195        1.0435252688       -0.9343870018
 H         -9.6256319598        1.0650493640       -2.4655087503
 O         -1.4360314653        3.4231812534       -3.5884799064
 H         -1.8193960634        2.6475922752       -3.1074946364
 H         -2.0935365711        4.1435612179       -3.6024236249
 O         -2.8834385634        2.4841497241       -5.7886372247
 H         -2.2665370956        2.7814388440       -5.0974336694
 H         -3.7666406586        2.6627304643       -5.4358193061
 O          6.6275768014       -5.0548543735       -0.0025576578
 H          6.2439134038       -4.3761726771        0.6086719942
 H          5.9213888951       -5.2530142710       -0.6332228435
 O         -6.2336198915       -0.4236009846        5.3384238730
 H         -6.9132953870       -0.9142183262        4.8485115323
 H         -5.5696478594       -1.0740350065        5.5909213421
 O          2.4434061286        0.3822172741       -5.6223884576
 H          3.0403898962        1.1556698282       -5.6689470833
 H          1.8533495040        0.4565386637       -6.3730744464
 O         -4.2880722588       -5.9529147808       -0.9585703156
 H         -3.6379688289       -5.8920495783       -1.6829542092
 H         -5.1493709335       -6.1563732056       -1.3354411077
 O         -6.9765078673       -5.5125606163       -1.6413500749
 H         -7.9065742110       -5.2759088898       -1.7219768801
 H         -6.4963056632       -4.7112713517       -1.9377175252
 O          8.3293703303        3.5768694937        1.6681670838
 H          8.8423831844        2.8926709377        2.1204910610
 H          8.5704630983        3.5087382140        0.7370501513
 O          8.3778736353       -1.6705618006        4.3185975122
 H          8.1398321317       -1.4912519817        3.3789218896
 H          9.3370374480       -1.6400368765        4.3391314711
 O          9.3614874318        1.9771930038       -3.4767515235
 H          8.9462739042        2.3843140372       -4.2387749855
 H          9.2995981705        1.0148368584       -3.5935198340
 O         -1.6787837922        5.2605721678        2.8012158812
 H         -0.8920725422        4.9809941671        3.2943512054
 H         -2.3934449041        4.6774156390        3.1214983031
 O         -8.9549808003       -3.5890936953       -1.3475531890
 H         -9.7441464097       -3.2178412735       -0.9120704449
 H         -8.1994788865       -3.2520570954       -0.8107409676
 O          6.9424084739       -3.9835970446        3.8460507907
 H          7.4068514705       -3.1889452632        4.1575920507
 H          7.5714055049       -4.3739335164        3.2089577691
 O          2.1851995761        5.2868958364       -3.7909120138
 H          1.6411486067        4.7549748132       -4.4054963844
 H          1.5879947192        5.8572995743       -3.2966749897
 O          0.8759959821        1.7590980536        5.7903571700
 H          1.7802457514        1.5065684424        6.0003432119
 H          0.5484466143        1.1128658361        5.1195411650
 O          0.5083791091        6.2609262245       -1.6446280691
 H          0.5232765410        6.4585696737       -0.6872308736
 H         -0.4418070920        6.1674850020       -1.8343546076
 O          8.6658984355       -4.7335042683        1.8799443424
 H          9.2153530274       -4.0404002122        1.4966781478
 H          8.1303857788       -5.0833717392        1.1570332305
 O         -6.8228512131       -3.9117942045        3.6480364476
 H         -7.1803248675       -4.5936459564        3.0757373428
 H         -6.1282330679       -4.3472878862        4.2020851615
 O         -2.6019655108       -7.1104245942        0.8969061741
 H         -2.8488371071       -6.5334077368        1.6435501396
 H         -3.2714524308       -6.9175141090        0.2222198050
 O          4.9304999853       -5.4714852104        2.6321904158
 H          5.5119492680       -4.8369904971        3.0836771699
 H          5.5126461294       -6.1168688516        2.2282550199
 O         -4.7245865052       -4.8520651469        4.9144589952
 H         -4.1153271861       -5.0456536739        4.1800345909
 H         -4.4290786597       -4.0133893652        5.2990608426
 O          3.9589768181        2.6075447615       -5.6853177806
 H          3.4411554031        3.4059997182       -5.5676802821
 H          4.7497214999        2.6981198797       -5.1257797017
 O          0.4250808295        6.1850253331        1.0531577715
 H          0.6170115428        5.2224164324        0.9994990681
 H         -0.3494573771        6.2636445400        1.6155283865
 O         -7.1074115099       -5.5388904033        1.1223004585
 H         -7.8872527733       -4.9714519589        1.2669910829
 H         -7.0832781134       -5.7278674241        0.1680155060
 O         -8.2365481208       -2.1628381381       -3.3941246310
 H         -8.2035043966       -2.6733243507       -4.2031018780
 H         -8.5924988562       -2.7547688081       -2.6768165074
 O          0.7848220851        3.4442863627       -5.1765855806
 H          1.2597986076        2.7534398088       -4.6490325754
 H         -0.0664355374        3.5499999436       -4.7185354822
 O         -0.4102247594       -6.4389109822       -0.4400088621
 H         -1.1664288525       -6.7188848998        0.1283434220
 H          0.3701931223       -6.9428299643       -0.1635528755
 O          0.6081317619       -2.0792397293        5.5696818418
 H          0.1987138091       -1.5919061386        6.3071571637
 H          1.0149936237       -1.3935730947        5.0096387868
 O         -0.2563411671       -3.5767622984       -6.2664881601
 H          0.5409651675       -3.7833145859       -5.7442915038
 H         -0.2660868505       -2.6087182636       -6.3459495302
 O         -0.4962601928       -0.8214621831       -6.0114491873
 H         -0.2306694637        0.0069652250       -6.4571402000
 H         -1.4654170646       -0.8153677028       -6.0899794478
 O         -5.1769379879        2.8800553166       -4.2310486415
 H         -6.0966565660        3.1418033411       -4.0699140841
 H         -4.6716414374        3.2155225595       -3.4505913945
 O         -0.6689798086       -0.2352347913        7.1292180696
 H         -0.1344737826        0.5539393336        6.9675604390
 H         -1.5273667081       -0.0674269748        6.7199504460
 O         10.7807121735       -1.1240817456        2.6754839163
 H         11.4831721258       -0.6855939942        2.1535352241
 H         10.4483240346       -1.8104078217        2.0838294671
 O          7.6256549810        4.8761555197       -3.2830997887
 H          8.1919928741        4.6214963212       -2.5456204531
 H          6.9368468059        5.4590743180       -2.8985279424
 O          2.4872787608        5.4733713112        2.7659117240
 H          1.9656899361        6.0114381634        2.1508859553
 H          2.8549312748        4.7456116498        2.2304416579
 O         10.6333861811       -0.6604143034       -1.4115399723
 H         10.0358783848       -0.0718341173       -0.8992476380
 H         10.1650541627       -0.8239270805       -2.2406066983
 O         12.2265247630        0.1316489003        0.7842832553
 H         12.0375002601       -0.3307026675       -0.0405864060
 H         11.9868213358        1.0506862569        0.6045009531
 O         -5.0946495113        4.6303961081        1.2303113897
 H         -5.3616013611        4.5874685786        2.1595524534
 H         -4.4520716675        5.3658674345        1.1285674681
 O          5.6239985243       -5.1506119902       -4.1332541004
 H          5.3221076636       -5.1770920911       -3.2096301647
 H          4.8426025870       -5.0128388270       -4.6713967930
 O         -3.0993094402       -0.1777787065       -6.0597456540
 H         -4.0383276124       -0.4109443589       -6.1497143342
 H         -3.0431543246        0.7977777558       -6.0266896511
 O          7.4686553622       -3.1777242008       -4.0372401338
 H          7.8105490710       -3.2888397821       -3.1254069079
 H          6.9902438624       -4.0036343698       -4.2346270705
 O         11.2600458091        2.3300800428       -0.6745008488
 H         10.5686401808        2.9828294795       -0.8152274152
 H         11.3538071416        1.8549903135       -1.5044939312
 O          6.1676364406       -1.3674846985       -5.7593379666
 H          6.2242130847       -0.6245174399       -5.1370105304
 H          6.7276678527       -2.0624303369       -5.3906302720
 O        -10.7398599773       -2.1845436961        0.1456458379
 H        -10.1402819017       -1.4010483494        0.1993059081
 H        -11.4559416722       -1.8661576028       -0.4291891196
 O         -4.9463759649       -3.5221117280       -5.0525634595
 H         -3.9973915234       -3.7171673615       -5.0564523520
 H         -5.2277675524       -3.5951934077       -4.1206677630
 O        -10.0933903244       -0.2287464874       -3.5242052487
 H         -9.9351327289        0.1771381643       -4.3780840530
 H         -9.3856328685       -0.9097172244       -3.4401007441
 O         -8.1997770869       -1.5196881971        3.7108611002
 H         -7.8874714111       -2.4425627135        3.7065425014
 H         -9.1529242928       -1.5691421253        3.4845313121
 O        -10.7720645690       -1.3596129536        2.8935047526
 H        -11.0262153654       -0.4338422935        2.7991021005
 H        -10.9510595011       -1.7794430689        2.0403868200
 O         -0.8847764443       -5.6884104318        4.4116582553
 H         -0.0502166333       -5.7031199350        3.9133211933
 H         -1.5179137056       -6.2273300275        3.9338571654
 O         -8.5258213460        1.3994421900        3.9068790494
 H         -8.4272618759        0.4410064312        3.9702114260
 H         -7.9815694785        1.7816962950        4.6142675796
 O          2.2451053498       -6.9930956679        0.0258246875
 H          2.4323999027       -6.9807734721       -0.9176664804
 H          2.6013797960       -6.1590106180        0.3767180525
 O          5.6004761625        5.9547653218       -1.8818594500
 H          5.9623918067        5.7764515742       -0.9940476734
 H          5.0300219548        5.1934075001       -2.0936824605
 O         -3.2895241350        6.5267383725        0.7425906127
 H         -2.7135390129        6.4674035772        1.5109284521
 H         -2.7619594527        6.2110898191       -0.0295481127
 O         -6.4278863542        4.5687978228       -1.0637910633
 H         -6.1337330749        4.7889858311       -0.1600678979
 H         -6.6351389818        3.6058164644       -0.9884047621
 O        -10.1983200498        3.3590010709        0.4951802720
 H         -9.3030915095        3.3457391243        0.8831576169
 H        -10.1102305046        2.9864755387       -0.3894381629
 O          6.3234862760        5.2374443169        0.5985576001
 H          7.2139228870        5.1694504163        0.9530715565
 H          5.7962500706        5.7040107299        1.2923102163
 O         -7.7393992051        3.4504671502       -3.3769700310
 H         -7.5417041242        4.1548230815       -2.7500168958
 H         -8.4081208699        2.8964724441       -2.9554461289
 O         -0.1597770700        1.6562196214       -6.9680483075
 H          0.2835709467        2.3510925850       -6.4400296231
 H         -1.0834337901        1.9199277661       -7.0110974898
 O          4.9187187594       -3.7063563398        5.7676839514
 H          5.6263942296       -3.9729238728        5.1621832983
 H          5.1473719940       -2.8231878280        6.0717027765
 O         -6.1864784578        3.8722628763        3.5814792738
 H         -5.8881188957        2.9311523831        3.5868981681
 H         -6.5505507825        4.0222218387        4.4550767371
 O          5.1216949927        6.2232668647        2.7410307963
 H          5.4377018607        5.4800173769        3.2709278723
 H          4.1502757687        6.1740823534        2.7899321984
 O          3.2336404344        5.9879599511       -0.3914243757
 H          3.9928843555        6.3347129358       -0.8807004911
 H          2.4632831792        6.1396690212       -0.9433936036
 O         -7.5732915935        0.5065303960       -4.2002325573
 H         -6.9878828203       -0.0561524364       -4.7435582331
 H         -7.3451117890        1.4167654348       -4.3976418030
 O         -6.6393555353        2.2202199239        5.8595412662
 H         -5.7193534788        2.5174615594        5.9389736404
 H         -6.5883225767        1.2653952404        6.0090538335
 O         -1.3047685292        3.4869814881        6.1908236482
 H         -0.6080394213        2.8181306327        6.2407057510
 H         -0.9468992374        4.1712753051        5.6194131384
 O        -12.0538756064       -0.5874214255       -1.5872805874
 H        -12.1347162567        0.2966147224       -1.2252817413
 H        -11.4517444149       -0.5206272975       -2.3448814495
 O         -3.3003846530        5.3416264511       -4.0391514299
 H         -3.9446316062        5.0386775825       -4.6808072505
 H         -3.7797156329        5.9026432346       -3.4039836636
 O         -4.7676800833        6.5824381630       -2.0682454418
 H         -4.3563776154        6.8988633028       -1.2595361751
 H         -5.5344298130        6.0597336278       -1.7990016401
