  102

 H         -0.5425054112       -1.1597996585        0.9180873602
 C         -0.6112510051       -0.5412956740        0.0100749182
 H         -0.5391308395       -1.1969144471       -0.8712436602
 C          0.5103658647        0.5037878336       -0.0094871839
 H          0.3911098457        1.1518924072        0.8600966290
 H          0.3944399221        1.1152669955       -0.9056411629
 O         -1.7891825170        0.2100258093       -0.0077307040
 H         -2.5646581753       -0.3620747642        0.0026734602
 N          1.8637421187       -0.1172780949        0.0059475209
 H          1.9871272141       -0.7237037741       -0.8163106223
 H          1.9839787968       -0.6890763207        0.8531041601
 H          2.5930828886        0.6072400316       -0.0077051379
 O          1.3824574692       -1.9920025034        2.1852823219
 H          2.3410014501       -2.0270849096        2.3238645099
 H          1.0667744220       -1.2102182317        2.6965368933
 O          0.8646289541        0.1715957991       -3.5635779364
 H          0.9543852322       -0.6565874708       -3.0710865820
 H         -0.0774232007        0.2037717136       -3.8477348911
 O         -1.7655008594        0.3329414995       -3.8026357532
 H         -2.1370119910       -0.4422058113       -3.3482717283
 H         -2.0061616647        1.1055051388       -3.2723229528
 O         -2.8253828983       -1.7538751413       -2.2915330945
 H         -3.4214855907       -2.3206687310       -2.7857409058
 H         -3.4195510110       -1.1257628119       -1.8322597394
 O          0.4683555876        0.1964885134        3.3779449669
 H         -0.4699235042       -0.0305837664        3.5046104301
 H          0.4882260248        1.1158714624        3.0758425347
 O          0.8169892381        2.8060142520        2.3695723022
 H          0.3581537447        3.5507408524        2.7599914882
 H          1.1545332977        3.1150531192        1.4982761974
 O         -1.9950873537        2.3220595387       -1.7740158860
 H         -1.9010381176        1.5241459069       -1.2192716656
 H         -2.9006272263        2.6208272111       -1.6060594294
 O          3.7540766058        1.7067920524        0.4341330014
 H          3.7110898781        1.6491264476        1.4104957519
 H          4.6591544736        1.4234617657        0.1914400596
 O          1.7905001616        3.4876540174       -0.0517935007
 H          2.6408724883        3.0287735651        0.0709328062
 H          1.4655227844        3.1827473084       -0.9183941629
 O         -4.3448157671        0.1176773604       -1.0501324074
 H         -5.0739950483       -0.3426833411       -0.6209596345
 H         -4.4614684925        1.0576191281       -0.8533873029
 O          0.8667152954        2.5898993843       -2.4786969509
 H          0.9550372697        1.7111631509       -2.9238000766
 H         -0.0127447083        2.9003782005       -2.7113062550
 O          1.5653366551       -2.0072859244       -1.9677442132
 H          2.2778158710       -2.4780565566       -2.4052847627
 H          1.1555686665       -2.6541993541       -1.3521168696
 O         -2.0515731736       -0.8577647196        3.4941088731
 H         -2.5903024497       -0.8119631124        4.2846666307
 H         -1.7102247787       -1.7796795602        3.4227952918
 O         -3.4288586260       -1.5614931663        1.2356755489
 H         -4.3640384487       -1.3083021746        1.1826729029
 H         -3.0768816650       -1.1748838804        2.0553575010
 O         -4.2581351784        2.7831892276       -0.2523973334
 H         -4.7912285558        3.5629430764       -0.0998599331
 H         -3.6798093125        2.6628840511        0.5327548702
 O         -2.4112711644        2.2575854216        1.6733210926
 H         -1.8450199536        2.9864328742        1.3467530913
 H         -2.0891706735        1.4597157513        1.2151389412
 O         -1.0107594510        4.0009376542        0.2094843117
 H         -0.0776122764        4.2130907526        0.1115617401
 H         -1.2814549586        3.5627774427       -0.6173519280
 O          0.6488313177       -3.5668584360       -0.0016402762
 H          0.8540708061       -3.0627042398        0.8009152646
 H         -0.3298915299       -3.6195412198       -0.0687664151
 O         -2.0266193341       -3.3708387845       -0.1628449090
 H         -2.5226782871       -2.8001848616        0.4531447652
 H         -2.2118553143       -2.9757996995       -1.0332268008
 O          3.4375830857        0.2203569859       -2.3367273764
 H          3.7142741901        1.1537383611       -2.3315790283
 H          2.8587975544        0.1346244790       -3.1005350256
 O          4.6657948840       -1.5662655005       -0.7678168259
 H          4.2805830674       -2.4475924519       -0.9049340116
 H          4.2536058471       -0.9724986402       -1.4265322079
 O          3.8952936549       -1.1560700425        1.7753825910
 H          4.5598977545       -0.6389598682        2.2327759030
 H          4.2587941195       -1.3313089341        0.8810425666
 O          6.1590689329        0.6317784951       -0.0728136099
 H          5.8981250700       -0.2601034488       -0.3483160321
 H          6.7851475603        0.9541243003       -0.7219594311
 O         -4.5269175438        1.1328450529        2.9868955813
 H         -3.7040776442        1.4956382607        2.6162000281
 H         -4.9576076782        1.8582199239        3.4383734922
 O         -1.0097702630       -3.2527186980        2.9565264021
 H         -1.3376473510       -3.7278171258        2.1879947096
 H         -0.0722370862       -3.0625603025        2.8040867268
 O         -5.9247814523       -0.4284275034        1.2743231838
 H         -5.4942855284        0.2065891711        1.8837313041
 H         -6.7566951086       -0.6765551458        1.6777821119
 O          3.1940017780        1.5144837710        3.0611240441
 H          2.8697810980        0.7255488727        3.5019182788
 H          2.4441164324        2.1280802316        3.0327309243
 O         -5.1539464393       -2.7083892514       -1.0070804318
 H         -4.6063684164       -3.2632851910       -0.4453967414
 H         -6.0675797433       -2.9255598610       -0.8215130131
 O          3.3072734340       -3.9377324769       -0.7444623539
 H          3.8405587450       -4.4784950862       -0.1625943315
 H          2.3866072424       -4.0577915146       -0.4668525928
 O          3.6811364538        2.9056660138       -2.4868322352
 H          3.9549916242        3.6179875973       -1.9073345662
 H          2.7478843316        3.0478205185       -2.6989022120
