  146

 H          0.4630927076        1.1941025328        0.8323452959
 C          0.5529035761        0.5095402430       -0.0251092077
 H          0.4633421182        1.0989800596       -0.9466436098
 C         -0.5779259333       -0.5149488604        0.0205351877
 H         -0.4518492549       -1.1270258237        0.9278134321
 H         -0.4840892692       -1.1748678656       -0.8448928486
 N         -1.8603253886        0.1647702475       -0.0623309410
 H         -2.6131021662       -0.5138473280       -0.0751527666
 H         -1.9956541839        0.7570092262        0.7508171932
 O          1.7808081027       -0.1833448059        0.0209869106
 H          2.5006908393        0.4507195084       -0.0567171281
 O          2.2553641657        0.2665999280        2.8895608023
 H          2.6816662893       -0.2624171796        2.1946460621
 H          1.4980620263       -0.2592863022        3.1982601530
 O          4.3203747433        2.0302350289        2.8430538422
 H          3.9279594013        2.8894119867        3.0156113553
 H          3.6264077687        1.3796897510        3.0603223371
 O         -1.5833537941        3.3890897276       -0.7795315876
 H         -1.4689043110        2.9101734633        0.0586031875
 H         -0.7309926858        3.3637585041       -1.2276076157
 O          2.1239794501        3.7767264420        0.4849124733
 H          2.6773875600        2.9871698396        0.3085024437
 H          1.5185988439        3.8205857959       -0.2651850758
 O          0.9475857315        2.7565413705        2.7279666017
 H          1.3853622484        1.8937409974        2.8075007728
 H          1.3682825726        3.2261584919        1.9811220242
 O          3.6860899190        1.6212365334        0.1648040483
 H          4.0865188912        1.6832869856        1.0483443920
 H          4.4112317713        1.5044685455       -0.4842213499
 O         -1.5913118597        2.5638240616        1.8994903505
 H         -0.7111603631        2.6568390931        2.3262222969
 H         -2.0008770893        3.4556185324        1.9107627493
 O          4.0674135000       -1.0714515645        1.1938829414
 H          4.1838980769       -1.1787463619        0.2304623914
 H          4.8471166203       -0.5868399672        1.5255185214
 O          1.9678397269       -1.3413228306       -2.3917515546
 H          2.1166722234       -0.5869867488       -3.0221757033
 H          1.8094398048       -0.9293111000       -1.5121852712
 O         -2.1076580426        1.0953524871       -2.5711254609
 H         -1.9232219136        0.8799203663       -1.6244509019
 H         -2.6046048349        0.3323112293       -2.9040595784
 O          4.5081022033       -1.6884864811       -1.4233881274
 H          4.5650209171       -2.6721163957       -1.2711753926
 H          3.6722892212       -1.5672386479       -1.9125915502
 O         -0.2159608245        1.9025253983       -4.1204092060
 H         -0.9436938394        1.5490974589       -3.5298646793
 H         -0.6540343497        2.4053916996       -4.8057608558
 O          2.2468227580        0.7138339635       -3.9742468756
 H          2.7948826142        1.4415781893       -3.6449589097
 H          1.3684983892        1.0966913247       -4.1385697730
 O         -3.3732367144       -1.3076266622       -3.0380569685
 H         -3.8072543722       -1.6738157907       -2.2485082593
 H         -2.4950543578       -1.7052940842       -3.0804874412
 O         -0.5334795772       -1.9305941533       -3.3293760967
 H          0.3641897364       -1.6966802421       -3.0079831942
 H         -0.4989895632       -1.8530680169       -4.2834569567
 O         -4.5354993074       -1.9880959327       -0.6113553131
 H         -4.5782520258       -1.0424079005       -0.3483917372
 H         -5.3696702653       -2.3555429582       -0.2856417522
 O         -4.6627559569        0.5451738229        0.2069404426
 H         -4.4333020464        1.2967254788       -0.3893727687
 H         -4.3267645042        0.7834422282        1.1038542945
 O         -3.6906722218        1.0712379148        2.6174469886
 H         -3.2922454632        0.1980432723        2.8040572648
 H         -2.9390712498        1.6864988246        2.4940946525
 O         -2.3212911564       -3.0551650187        0.5339761007
 H         -3.1807421996       -2.8140086161        0.1388185616
 H         -1.7970459801       -3.4232261586       -0.2098447487
 O         -5.3995108699       -1.7490613454        3.1138619260
 H         -5.7336104479       -0.8690916883        3.3038372842
 H         -5.8767376433       -2.0588081861        2.3255890411
 O         -2.7273130018       -1.4397786213        2.8003283872
 H         -3.6224600250       -1.7215118628        3.0688323539
 H         -2.5427032446       -1.9371984473        1.9890293982
 O          6.2810449628        0.0245933553        2.2620024386
 H          6.0698517265        0.4608618501        3.0890330892
 H          6.6003972398       -0.8970134204        2.4557859803
 O         -0.8400058155       -3.9975529472       -1.4983337728
 H         -0.8665694468       -3.3646751837       -2.2311395455
 H          0.1027984278       -4.2134038940       -1.3867753042
 O          0.0302330665       -1.2821390048        3.4302232396
 H         -0.9075555059       -1.0508010212        3.4154773003
 H          0.0435090657       -2.2396110548        3.3160966453
 O          1.9174510805       -3.9623991418       -1.3076714050
 H          1.9675630134       -3.1875144923       -1.8835423204
 H          1.8887207963       -3.5974814045       -0.3894888419
 O          1.8192750653       -2.8551044587        1.0880430732
 H          1.7530901646       -1.9055777972        0.9091745272
 H          1.0038932110       -3.1342313971        1.5373629987
 O          4.4324638886       -3.6159993852        1.8438407332
 H          3.6189736860       -4.0079931018        2.1662048705
 H          4.1897358065       -2.6754067288        1.6484583005
 O         -7.2236132638        0.3509885833        0.6223910112
 H         -7.2687850176        0.9048447307        1.4250698098
 H         -6.2622516378        0.4325499638        0.3823239072
 O          4.6129685207       -4.2199148679       -0.8058586645
 H          4.6122345736       -4.1510738086        0.1715848695
 H          3.6983850201       -4.4449894843       -1.0537713649
 O          5.5153374311        0.8811093973       -1.6439648567
 H          5.2394421261       -0.0385672533       -1.7626075031
 H          6.3692149105        0.8556545693       -1.1654367144
 O         -6.3352917213        1.9628172746        2.5910453895
 H         -5.4578787932        1.6463625336        2.8529295219
 H         -6.1410092097        2.7193650605        2.0160755415
 O         -6.8866805840       -2.2684638910        0.8246066994
 H         -7.1238186777       -1.3102947248        0.7460858064
 H         -7.7016248050       -2.7620971202        0.7412224225
 O         -5.4402698180        3.8037249705        0.6542113367
 H         -6.0612714729        4.4233444705        0.2740991565
 H         -5.0092506246        3.3525741829       -0.1045271979
 O          6.9412273358       -2.4992236914        2.2756928567
 H          7.1758748544       -2.4940423675        1.3313537932
 H          6.1371208164       -3.0382762346        2.3322222912
 O          3.7101438937        2.7463749351       -2.6824099693
 H          4.4185921439        2.1086020811       -2.5180751427
 H          3.9936899440        3.5375008343       -2.1708909128
 O          7.1510477852       -2.2722102435       -0.4927053991
 H          7.2109377866       -3.1709437609       -0.8229067458
 H          6.3043183995       -1.9372096075       -0.8196454340
 O         -0.4310317222       -3.8345117014        2.3100394560
 H         -0.5048318057       -4.7799541686        2.4382339794
 H         -1.1771784762       -3.5778278711        1.7347332780
 O         -4.1716091210        2.6070496222       -1.3608357053
 H         -3.2165175011        2.7969970651       -1.4072050257
 H         -4.4232608660        2.1383902868       -2.1895139718
 O          1.0264057495        3.0961235728       -1.9967712688
 H          1.9730255049        3.0216976194       -2.2081719799
 H          0.5721547657        2.7984583510       -2.8041514849
 O         -5.1430391854        1.0163897503       -3.2741073270
 H         -6.0133091206        0.7749051199       -2.9106531104
 H         -4.6526407327        0.1907225025       -3.3601505096
 O          4.4780195194        4.5722300645       -0.8740943943
 H          5.1628913980        4.1318739027       -0.3479803828
 H          3.6986806470        4.6272547335       -0.3017591731
 O          6.2027575968        3.0358866664        0.7628069360
 H          6.9189732579        2.4878991982        0.4303041675
 H          5.9058980817        2.6475976511        1.5924870706
 O          7.6374558047        0.5332521294       -0.0276663071
 H          7.2184078343        0.3932791041        0.8419950219
 H          7.9653962751       -0.3334282787       -0.2893406132
 O         -2.9042154561        4.8194161117        1.3034503357
 H         -3.8275649202        4.5291487470        1.2340361023
 H         -2.5325315877        4.7337949267        0.4150988503
 O         -7.5914428412        0.4963191586       -2.0938299247
 H         -7.5625152840        0.4426895138       -1.1220024835
 H         -8.2068959809        1.1966798914       -2.3079125510
