  102

 H         -0.5425054112       -1.1597996585        0.9180873603
 C         -0.6112510051       -0.5412956740        0.0100749183
 H         -0.5391308395       -1.1969144470       -0.8712436601
 C          0.5103658647        0.5037878336       -0.0094871839
 H          0.3911098457        1.1518924072        0.8600966290
 H          0.3944399221        1.1152669956       -0.9056411628
 O         -1.7891825170        0.2100258093       -0.0077307040
 H         -2.5646581753       -0.3620747641        0.0026734602
 N          1.8637421187       -0.1172780949        0.0059475208
 H          1.9871272141       -0.7237037741       -0.8163106224
 H          1.9839787968       -0.6890763206        0.8531041603
 H          2.5930828886        0.6072400317       -0.0077051379
 O          3.6144781706        2.0008498359        0.0938650504
 H          4.1347702239        1.6671708771       -0.6871629261
 H          3.0193416172        2.7034026512       -0.2266343901
 O          1.3543031006       -3.4492648788       -1.6918065102
 H          1.5306561797       -2.6095646485       -2.1454310722
 H          1.5137434588       -3.2829100993       -0.7382443125
 O          2.0630725933       -0.6333117082        2.6599966367
 H          2.2455402658        0.3033295985        2.8492507515
 H          1.2085333965       -0.8190832064        3.0806428858
 O         -0.5189835978       -0.7171946508        3.6488796129
 H         -0.9049775908       -0.8415484932        4.5160356956
 H         -1.0092621925        0.0260917993        3.2368796825
 O         -2.5952779705       -3.1070551037        0.3847856517
 H         -3.2545494609       -2.4562609552        0.1010706145
 H         -2.1189909107       -3.3521152128       -0.4234561834
 O          1.5272547944        3.5641227729       -0.6268532421
 H          1.0081471287        3.4596713555        0.2037573462
 H          1.4083000736        4.4767107089       -0.8941406835
 O          1.7757072592       -2.8451289860        0.8934066640
 H          2.3895506856       -3.4305768612        1.3379118999
 H          0.9170612763       -2.9574036500        1.3764884936
 O          3.8383648479       -1.6122949737       -1.1377944555
 H          4.0832097609       -1.6263182238       -0.1875879709
 H          3.7775925034       -2.5214232468       -1.4338338545
 O         -0.5070527673       -3.0910036524        2.1881383155
 H         -0.6577504268       -2.3290197487        2.7718110582
 H         -1.3027647455       -3.1906999636        1.6369464337
 O         -1.5538336846        1.4962151293        2.4042907863
 H         -2.4161454505        1.9133770451        2.6118695439
 H         -1.7522614291        0.9741643185        1.6029026012
 O         -1.2285257012       -3.5408020327       -2.0191263235
 H         -0.2382052398       -3.5792935503       -1.8691547328
 H         -1.4756366044       -4.3935982664       -2.3783770114
 O          0.3106120635        3.2842686292        1.7685003967
 H         -0.3921802428        2.6557361492        2.0641205310
 H          1.0620701340        3.1125548563        2.3503423206
 O          2.6775206234        2.0579463176        2.7546628196
 H          3.4062172314        2.1713171097        3.3686195698
 H          3.0681970572        2.0904483352        1.8683392320
 O          4.8880305205        0.7964743626       -1.8307355401
 H          4.4564068099       -0.0789773401       -1.8271579182
 H          5.7601112000        0.6283490758       -1.4412615242
 O         -3.9840400655        2.6100672816        2.3930359924
 H         -4.5837185146        2.2815195841        3.0663583647
 H         -4.3234691877        2.2195112520        1.5600140590
 O          1.3066994357       -0.8838217761       -2.6430252341
 H          1.6774929380       -0.0114620644       -2.8525408691
 H          0.4018045362       -0.8796616603       -2.9930283714
 O         -1.3567722851       -1.2855927617       -3.4753711221
 H         -1.4111363497       -2.1162463352       -2.9487363275
 H         -1.3597307722       -1.5451944632       -4.3981996788
 O          2.2313138402        1.6835228079       -2.6961839238
 H          3.1850933148        1.7319199511       -2.8085234031
 H          1.9539290449        2.4343161788       -2.1552737923
 O         -4.7370275446        1.6205528471       -0.0062912767
 H         -5.5575322763        1.7665485957       -0.4859705454
 H         -4.0159968436        1.9768161267       -0.5724260293
 O         -2.5669651740        2.4015582547       -1.3822254055
 H         -2.4182824438        3.1920509326       -0.8253021780
 H         -2.0627787830        1.6900978787       -0.9507369966
 O         -4.1298681116       -0.9813000366       -0.5199657860
 H         -4.0078339487       -0.7262531480       -1.4534878782
 H         -4.5161070111       -0.1848365570       -0.1043600880
 O         -3.5937349217        0.2616442556       -2.8898825349
 H         -3.2568435587        1.1216072481       -2.5959175983
 H         -2.8101121349       -0.2360984697       -3.1818926023
 O         -2.2282315554        4.1570279611        0.6363123691
 H         -2.8781070689        3.8962984304        1.3013372572
 H         -1.3735010431        4.1707940452        1.0795967651
 O          4.4837528909       -1.3186353593        1.4609848340
 H          4.8486406246       -0.4558344956        1.7464317352
 H          3.6874309385       -1.4271919453        2.0002776340
 O         -3.1327488881       -0.8078372239        2.3177328413
 H         -4.0136064451       -0.4107674174        2.4210868226
 H         -3.2706427597       -1.7364304429        2.1214626029
 O         -5.7056920417        0.2264642373        2.5246081610
 H         -6.2971081033       -0.0951243686        3.2059158485
 H         -6.1538305167        0.0361209432        1.6752002898
 O         -6.8872928817       -0.6051568405        0.2057859157
 H         -6.4554874994       -1.4433851155        0.0204203099
 H         -6.8319775573       -0.0927414989       -0.6160510704
 O          5.4851659597        1.1667455834        1.9677158391
 H          6.3909918025        1.0750131035        1.6605692268
 H          5.0113870323        1.6338152893        1.2643716957
 O          6.8422185884       -0.2537809135       -0.1506099480
 H          7.6666374741       -0.6763464084       -0.3950291787
 H          6.2968367897       -0.9206655236        0.2842035740
 O         -6.2813167177        0.7749165937       -2.1753850927
 H         -6.8993407715        0.9189701912       -2.8918517899
 H         -5.4250678240        0.5601878985       -2.5773581222
