  146

 H          0.4630927076        1.1941025328        0.8323452958
 C          0.5529035761        0.5095402430       -0.0251092077
 H          0.4633421182        1.0989800596       -0.9466436100
 C         -0.5779259333       -0.5149488604        0.0205351875
 H         -0.4518492549       -1.1270258237        0.9278134320
 H         -0.4840892691       -1.1748678656       -0.8448928486
 N         -1.8603253886        0.1647702475       -0.0623309409
 H         -2.6131021662       -0.5138473280       -0.0751527666
 H         -1.9956541839        0.7570092262        0.7508171932
 O          1.7808081027       -0.1833448059        0.0209869107
 H          2.5006908393        0.4507195084       -0.0567171281
 O          1.7481231801        3.3462065064        1.6656640195
 H          1.9935258296        2.9439787573        0.8128289536
 H          2.5634066410        3.7902272092        1.9548997794
 O         -1.8090518749        1.1604962744       -2.4915802753
 H         -2.4054726392        0.5429509638       -2.9451610463
 H         -1.7702544571        0.8037677760       -1.5480881435
 O          4.4587658731       -0.6705001220       -0.2729263119
 H          3.8512203114       -1.1482759813       -0.8725373102
 H          5.2342010813       -0.4156998370       -0.8353875381
 O          4.6008744608        1.0792421365        1.7551702301
 H          4.5598142207        0.5465143049        0.9352390857
 H          3.8142316270        0.7649345088        2.2626447486
 O         -3.5852890741        2.7855676628       -1.2836387613
 H         -2.9363319101        2.3126873989       -1.8401443820
 H         -3.2655813189        2.7082300730       -0.3539345195
 O         -5.0471452319        0.6623751778       -0.4010124590
 H         -4.6013142746        1.4166812799       -0.8283503060
 H         -5.4827422442        1.0217309024        0.4008440325
 O          2.5335933015       -0.2123479480        2.7168404167
 H          2.0779971624       -0.3056562278        1.8633126063
 H          2.7769077108       -1.1317645604        2.9643329877
 O         -3.3245875536       -1.0309136320       -3.0806708443
 H         -3.1767759063       -1.5333256750       -2.2542329263
 H         -4.2505379155       -1.1605938317       -3.2993659494
 O          0.5399956509        1.5517239943        3.3898188829
 H          0.8508441427        2.3175330927        2.8814748689
 H          1.3131149278        0.9735088632        3.4689746255
 O         -0.7576667298        3.8804563929        0.7391744480
 H          0.0442162882        3.8922575160        1.2821049614
 H         -0.4660146441        3.5605751355       -0.1305098995
 O         -2.9782979152        2.5035246510        1.3270051721
 H         -2.1863513944        3.0748356224        1.3420873050
 H         -3.7539667178        3.0593560645        1.6071685925
 O          0.0805579990        3.2853644322       -1.9132938629
 H         -0.4202089640        2.5849817255       -2.3498838525
 H         -0.4863941292        4.0787856154       -2.0110392036
 O          2.8377748418        0.6669037297       -2.8942589403
 H          1.9507803586        0.5220736131       -3.2981623293
 H          2.6824468418        1.2229305957       -2.1080722049
 O          0.4094608601       -0.0307707561       -3.5910271111
 H          0.3582510168       -0.9271766536       -3.2323766531
 H         -0.3839174232        0.4391736358       -3.2796803839
 O         -4.3128721679       -1.4680859379        1.0742052003
 H         -4.0361046598       -0.8996445054        1.8337399909
 H         -4.6345483916       -0.8069312198        0.4291438397
 O          3.0275091413       -1.9421998413       -2.1594201382
 H          3.0145568043       -1.0780205017       -2.6107848356
 H          2.1239258598       -2.2865829856       -2.2504594286
 O          3.0818242938       -2.8042211824        2.8541784751
 H          2.5253021291       -2.9872791817        2.0650072979
 H          3.9937720022       -2.8999322651        2.5319747011
 O          1.7603291283       -2.9781589605        0.5332164023
 H          1.7734275667       -2.0760279943        0.1783441993
 H          2.4834255520       -3.4699755943        0.0765389220
 O         -1.0761799473       -0.5980640562        3.3155197586
 H         -0.5984185897        0.2549417220        3.3064623173
 H         -0.5101200900       -1.1872749101        3.8438018660
 O          0.3280828453       -2.6415849057       -2.4117411742
 H          0.0532823687       -3.1793845862       -1.6581299781
 H         -0.2802330487       -2.8909415119       -3.1366322306
 O         -3.0586933114       -2.7260827840       -0.9629754105
 H         -2.2257462422       -3.1778590032       -0.7327490189
 H         -3.4438723698       -2.4208984104       -0.1192585795
 O         -0.7689011984       -3.8161129118        0.0379682511
 H          0.1671702391       -3.6381919568        0.2530390557
 H         -1.2275722146       -3.6846120878        0.8888887649
 O         -2.0823871796       -2.9813651370        2.2709291556
 H         -3.0291011702       -2.8531689021        2.1749211000
 H         -1.7328204046       -2.1393975588        2.6067170313
 O          6.5382166077        0.1358408875       -1.6247779621
 H          6.8240755287        0.8186884699       -0.9787433040
 H          6.1910509222        0.6286421996       -2.3891967100
 O         -3.5916651694        0.3335999073        2.8834475443
 H         -2.7616340267        0.0144847492        3.2774112763
 H         -3.3488767673        1.1469541591        2.3972316240
 O          6.9474131048        1.9135771092        0.3521740512
 H          7.7097120416        1.4148871490        0.7433293196
 H          6.2434841338        1.8045891348        1.0026119779
 O          8.5264733575        0.1553071185        1.4907046394
 H          7.9725678058       -0.1000159486        2.2409724903
 H          8.4934493623       -0.6109010534        0.8824651474
 O         -6.2464340887        1.0268848646        2.0166804451
 H         -6.7086309403        0.1605468487        1.9275987095
 H         -5.5033760204        0.8546245082        2.6090259643
 O          0.5511112569       -2.6221877996        4.1923967593
 H          1.4765774787       -2.7437961883        3.9451348638
 H          0.0694957783       -3.3754098832        3.8433555114
 O         -7.1217085926       -1.4133386327        1.3798460877
 H         -6.2360401728       -1.8000215653        1.4237002104
 H         -7.3080838189       -1.3015010688        0.4259801332
 O          5.4606324515       -2.4689763263        1.4104496885
 H          5.9015452528       -1.9524879651        2.1060217046
 H          5.0423509650       -1.7943944905        0.8255180220
 O          2.5845041457        2.4509209536       -0.8244432825
 H          1.9241609407        2.9850234862       -1.2914529144
 H          3.4637053094        2.8777773865       -0.9384971054
 O         -7.0550661336       -0.8736650889       -1.2932120687
 H         -6.6576225387       -1.6209428426       -1.7634905293
 H         -6.3146373964       -0.2550592606       -1.1302890955
 O          3.9430139694       -4.0310282749       -0.5399876275
 H          4.6583205728       -3.7656347808        0.0494934438
 H          3.9802649513       -3.4667260089       -1.3234164532
 O          6.3044096065       -0.4933178439        3.1215811765
 H          6.1151778015       -0.4559329148        4.0584888791
 H          5.7214667292        0.1692099196        2.6874875463
 O         -5.2240246471        3.7253096421        1.8528161616
 H         -5.8136721314        3.0247246531        2.1512891182
 H         -5.5579201775        3.9792311713        0.9611461647
 O          5.0927028377        3.3159519865       -1.2085411321
 H          5.2097006524        2.9584530229       -2.1016046371
 H          5.8460452522        2.9748465121       -0.7020277772
 O          7.8172108700       -1.9061603677       -0.1361852812
 H          7.0717140400       -2.3077335249        0.3340133964
 H          7.4493683354       -1.3772897377       -0.8562330700
 O          4.3837465794        3.8932815052        1.7018444678
 H          4.7008023001        4.1501052635        0.8317984392
 H          4.5314044418        2.9380520183        1.7788594937
 O          5.2140689420        1.6589415543       -3.4481692647
 H          4.3144319671        1.2733626024       -3.3321134549
 H          5.4059710060        1.6108953152       -4.3827249649
 O         -1.7555299486       -3.0865576426       -4.0428513189
 H         -2.3043480776       -3.7868439546       -3.6861275523
 H         -2.2587370579       -2.2604327099       -3.9286649459
 O         -1.9390495538        5.0339514933       -1.6389499767
 H         -1.7955739736        5.2672566375       -0.7161456935
 H         -2.7054544204        4.4377106757       -1.6411392081
 O         -6.0828613246        3.9433939432       -0.6643768516
 H         -5.3238443952        3.6117564116       -1.1587091450
 H         -6.7754999927        3.2632962234       -0.7109001373
 O         -7.8347805517        1.8118699699       -0.3849633004
 H         -7.7269873630        1.6257419007        0.5528311071
 H         -7.9424339275        0.9628339334       -0.8264240701
 O         -5.4540254552       -2.9473669068       -2.2755000479
 H         -5.9233787538       -3.7683989815       -2.1310171589
 H         -4.6189265476       -3.0129315357       -1.7788945541
