  117

 H         -0.5425054112       -1.1597996585        0.9180873603
 C         -0.6112510051       -0.5412956740        0.0100749183
 H         -0.5391308395       -1.1969144470       -0.8712436601
 C          0.5103658647        0.5037878336       -0.0094871839
 H          0.3911098457        1.1518924073        0.8600966290
 H          0.3944399221        1.1152669956       -0.9056411629
 O         -1.7891825170        0.2100258093       -0.0077307040
 H         -2.5646581753       -0.3620747641        0.0026734602
 N          1.8637421187       -0.1172780949        0.0059475209
 H          1.9871272141       -0.7237037740       -0.8163106223
 H          1.9839787968       -0.6890763206        0.8531041602
 H          2.5930828886        0.6072400317       -0.0077051379
 O          3.9909983477        1.3848533907        0.7677297140
 H          3.7099778421        1.9711941041        1.4997040944
 H          4.2020351298        0.5292337678        1.1844260617
 O          1.2996367562       -0.0308256259        2.7456383782
 H          0.6648708421       -0.5232329407        3.2953413758
 H          2.1450679554       -0.0290522432        3.2290219418
 O         -0.5207731236       -0.8724770836        4.5536366366
 H         -0.3426031015       -0.1402067419        5.1446438239
 H         -1.4590561824       -0.7846892358        4.2973448041
 O         -3.0214555489       -0.3462502039        3.6795568229
 H         -3.8217950392       -0.1163863574        4.1530785010
 H         -2.7640401628        0.4450488388        3.1430741870
 O          2.0204014730       -2.6256767438        1.1503551543
 H          1.2822714104       -2.7633407208        1.7652897258
 H          1.6703482588       -2.9525555807        0.2948285272
 O          1.2872257493        0.5997558568       -3.3196210269
 H          1.8274383324        1.1552583424       -2.7306337146
 H          1.8185688484        0.4120296745       -4.0946061992
 O         -0.3519657164       -2.8524108923        2.5464889344
 H         -0.3083445328       -2.5860822764        3.4689302016
 H         -1.2998641703       -2.9023193036        2.3341679513
 O         -3.0666880079       -2.5419870868        2.0010269786
 H         -3.4047595272       -2.1515542581        1.1761740666
 H         -3.0805217582       -1.8215770886        2.6535338808
 O         -2.2624686908        1.6648222316        2.1241703507
 H         -1.4410886119        2.0692990810        2.4817281193
 H         -1.9727586578        1.0889625242        1.3716378541
 O          4.3055721008       -1.2124814030        1.6141791002
 H          4.9234673408       -1.3799245570        0.8704473615
 H          3.5609174368       -1.8309888616        1.5043357969
 O         -4.1050550443       -0.9234982069        0.0890160533
 H         -4.5143215956       -0.7337896746       -0.7769093145
 H         -4.5153338401       -0.2894221112        0.7090959875
 O          2.5809182969        2.4071481700       -1.6609543624
 H          2.6047081837        3.1704998611       -2.2410633637
 H          2.1971869363        2.7276413021       -0.8127353652
 O         -0.6650021538        4.0018898059       -1.0522980439
 H         -1.5758767841        3.8432688887       -0.7576023721
 H         -0.6121624591        3.5385679044       -1.9192903826
 O         -0.7479694472        2.4797936176       -3.2300246484
 H         -0.1105612642        1.7700719468       -3.3976141707
 H         -1.6055748583        2.0407420922       -3.1113248647
 O          0.2334828996        2.4316596842        2.8297626426
 H          0.6388759781        1.5348784836        2.8379565058
 H          0.5834070590        2.8780308696        2.0367421271
 O         -5.0400179180        0.9333295762        1.8454434173
 H         -4.2419723336        1.4333089341        2.0590171011
 H         -5.5330879948        1.4933431091        1.2202045188
 O          1.3097305494        3.4472194036        0.4914320291
 H          1.7240754454        4.2796949699        0.7240849543
 H          0.5101677613        3.6802033981       -0.0760050645
 O         -3.1054921042        2.8344954250       -0.4112418771
 H         -2.8043906576        2.4822990533        0.4364791407
 H         -2.9410709216        2.1371563530       -1.0897926306
 O         -5.7297216773        2.5200115743       -0.2351713568
 H         -4.7779681916        2.7682607585       -0.3566838468
 H         -6.2492765929        3.2933127323       -0.4518599281
 O         -2.9596888338        1.0472599119       -2.4318681773
 H         -2.6435320424        0.1274357380       -2.3309058024
 H         -3.9027565519        0.9518862685       -2.6164118284
 O          0.8574750951       -3.5314490120       -1.1148763016
 H          1.3439364515       -4.2710694576       -1.4820460544
 H          0.6592349524       -2.9394058510       -1.8895680924
 O          2.7356281089       -1.5124462685       -2.0611576051
 H          3.1372114542       -2.3523945105       -1.7667684640
 H          3.4476923341       -0.9704111416       -2.4162996201
 O          4.6339769708        0.5749311331       -2.1644918917
 H          3.9670013295        1.2221270670       -1.8816890735
 H          5.4811340797        1.0080052040       -1.9916612649
 O         -5.5491819613        0.3090539203       -1.8784122404
 H         -6.2561664265       -0.3357565727       -1.7537642461
 H         -5.7849911328        1.0870586106       -1.3456803529
 O         -2.5213030481       -1.6354820544       -2.3544091754
 H         -2.3106331965       -2.2887358363       -1.6587813303
 H         -3.4010361852       -1.9197113609       -2.6549129254
 O         -1.8642881249       -3.5562122533       -0.5427107760
 H         -2.0692451476       -3.6713284200        0.3877673062
 H         -0.9101761031       -3.7058446891       -0.6513898883
 O          5.7755121234       -1.3761157176       -0.5887203053
 H          6.6436646444       -0.9860341883       -0.4595126956
 H          5.3033245862       -0.7463549475       -1.1705311401
 O         -6.8866063257       -1.7389950864       -0.5458834760
 H         -7.8021564806       -2.0143941422       -0.5559718705
 H         -6.5957672037       -1.7895485546        0.3907417620
 O          3.2127857927        2.6101510401        3.0308539373
 H          3.4979772895        1.8924225542        3.6103053968
 H          2.2970273543        2.8061324038        3.2594662664
 O          0.0957551805       -1.9985574601       -3.1148949874
 H         -0.8640418276       -1.8467627845       -3.0838794075
 H          0.5268121272       -1.1352906557       -3.1696545887
 O          4.0426286652       -3.5704334556       -0.9021223966
 H          4.8830331557       -3.1003651911       -0.8212918135
 H          3.7331417546       -3.7607853762       -0.0124748448
 O          6.4884683811        1.4927161937       -0.3848093403
 H          5.6394359428        1.6002971300        0.0858392168
 H          7.0686757032        2.1895698132       -0.0794563097
 O          3.7306929236       -0.0359537892        3.9229471952
 H          3.7998752235       -0.6730622867        4.6321478754
 H          4.1482169432       -0.4577466276        3.1463898224
 O         -4.9354700511       -2.8595221738       -2.2208246355
 H         -4.5778242306       -3.6288591672       -1.7733387527
 H         -5.6594747928       -2.5265407823       -1.6674773136
 O         -6.0730997500       -1.7808044950        2.0464028572
 H         -5.2802467858       -2.3100260830        2.1895724365
 H         -5.8474280003       -0.8616187653        2.2361829816
